<?xml version="1.0" encoding="UTF-8"?>

<!-- generated on Tue Jan  7 19:45:34 2020 by Eclipse SUMO netconvert Version 1.4.0
<configuration xmlns:xsi="http://www.w3.org/2001/XMLSchema-instance" xsi:noNamespaceSchemaLocation="http://sumo.dlr.de/xsd/netconvertConfiguration.xsd">

    <input>
        <osm-files value="intersection.osm"/>
    </input>

    <output>
        <output-file value="intersection.net.xml"/>
    </output>

    <projection>
        <proj.utm value="true"/>
    </projection>

    <report>
        <aggregate-warnings value="5"/>
    </report>

</configuration>
-->

<net version="1.3" junctionCornerDetail="5" limitTurnSpeed="5.50" xmlns:xsi="http://www.w3.org/2001/XMLSchema-instance" xsi:noNamespaceSchemaLocation="http://sumo.dlr.de/xsd/net_file.xsd">

    <location netOffset="-487306.20,-4286077.94" convBoundary="0.00,0.00,302.71,435.39" origBoundary="-9.148047,38.723270,-9.140555,38.727775" projParameter="+proj=utm +zone=29 +ellps=WGS84 +datum=WGS84 +units=m +no_defs"/>

    <type id="highway.bridleway" priority="1" numLanes="1" speed="2.78" allow="pedestrian" oneway="1" width="2.00"/>
    <type id="highway.bus_guideway" priority="1" numLanes="1" speed="27.78" allow="bus" oneway="1"/>
    <type id="highway.cycleway" priority="1" numLanes="1" speed="8.33" allow="bicycle" oneway="0" width="1.00"/>
    <type id="highway.footway" priority="1" numLanes="1" speed="2.78" allow="pedestrian" oneway="1" width="2.00"/>
    <type id="highway.ford" priority="1" numLanes="1" speed="2.78" allow="army" oneway="0"/>
    <type id="highway.living_street" priority="2" numLanes="1" speed="2.78" disallow="tram rail_urban rail rail_electric rail_fast ship" oneway="0"/>
    <type id="highway.motorway" priority="14" numLanes="2" speed="39.44" allow="private emergency authority army vip passenger hov taxi bus coach delivery truck trailer motorcycle evehicle custom1 custom2" oneway="1"/>
    <type id="highway.motorway_link" priority="9" numLanes="1" speed="22.22" allow="private emergency authority army vip passenger hov taxi bus coach delivery truck trailer motorcycle evehicle custom1 custom2" oneway="1"/>
    <type id="highway.path" priority="1" numLanes="1" speed="2.78" allow="pedestrian bicycle" oneway="1" width="2.00"/>
    <type id="highway.pedestrian" priority="1" numLanes="1" speed="2.78" allow="pedestrian" oneway="1" width="2.00"/>
    <type id="highway.primary" priority="12" numLanes="2" speed="27.78" disallow="tram rail_urban rail rail_electric rail_fast ship" oneway="0"/>
    <type id="highway.primary_link" priority="7" numLanes="1" speed="22.22" disallow="tram rail_urban rail rail_electric rail_fast ship" oneway="0"/>
    <type id="highway.raceway" priority="15" numLanes="2" speed="83.33" allow="vip" oneway="0"/>
    <type id="highway.residential" priority="3" numLanes="1" speed="13.89" disallow="tram rail_urban rail rail_electric rail_fast ship" oneway="0"/>
    <type id="highway.secondary" priority="11" numLanes="1" speed="27.78" disallow="tram rail_urban rail rail_electric rail_fast ship" oneway="0"/>
    <type id="highway.secondary_link" priority="6" numLanes="1" speed="22.22" disallow="tram rail_urban rail rail_electric rail_fast ship" oneway="0"/>
    <type id="highway.service" priority="1" numLanes="1" speed="5.56" allow="pedestrian delivery bicycle" oneway="0"/>
    <type id="highway.stairs" priority="1" numLanes="1" speed="1.39" allow="pedestrian" oneway="1" width="2.00"/>
    <type id="highway.step" priority="1" numLanes="1" speed="1.39" allow="pedestrian" oneway="1" width="2.00"/>
    <type id="highway.steps" priority="1" numLanes="1" speed="1.39" allow="pedestrian" oneway="1" width="2.00"/>
    <type id="highway.tertiary" priority="10" numLanes="1" speed="22.22" disallow="tram rail_urban rail rail_electric rail_fast ship" oneway="0"/>
    <type id="highway.tertiary_link" priority="5" numLanes="1" speed="22.22" disallow="tram rail_urban rail rail_electric rail_fast ship" oneway="0"/>
    <type id="highway.track" priority="1" numLanes="1" speed="5.56" disallow="tram rail_urban rail rail_electric rail_fast ship" oneway="0"/>
    <type id="highway.trunk" priority="13" numLanes="2" speed="27.78" disallow="pedestrian bicycle tram rail_urban rail rail_electric rail_fast ship" oneway="0"/>
    <type id="highway.trunk_link" priority="8" numLanes="1" speed="22.22" disallow="pedestrian bicycle tram rail_urban rail rail_electric rail_fast ship" oneway="0"/>
    <type id="highway.unclassified" priority="4" numLanes="1" speed="13.89" disallow="tram rail_urban rail rail_electric rail_fast ship" oneway="0"/>
    <type id="highway.unsurfaced" priority="1" numLanes="1" speed="8.33" disallow="tram rail_urban rail rail_electric rail_fast ship" oneway="0"/>
    <type id="railway.highspeed" priority="21" numLanes="1" speed="69.44" allow="rail_fast" oneway="1"/>
    <type id="railway.light_rail" priority="19" numLanes="1" speed="27.78" allow="rail_urban" oneway="1"/>
    <type id="railway.preserved" priority="16" numLanes="1" speed="27.78" allow="rail" oneway="1"/>
    <type id="railway.rail" priority="20" numLanes="1" speed="44.44" allow="rail" oneway="1"/>
    <type id="railway.subway" priority="18" numLanes="1" speed="27.78" allow="rail_urban" oneway="1"/>
    <type id="railway.tram" priority="17" numLanes="1" speed="13.89" allow="tram" oneway="1"/>

    <edge id=":212788159_0" function="internal">
        <lane id=":212788159_0_0" index="0" disallow="tram rail_urban rail rail_electric rail_fast ship" speed="3.65" length="4.67" shape="301.41,-0.94 302.76,-1.44 303.65,-1.30 304.06,-0.51 304.01,0.94"/>
    </edge>
    <edge id=":247123161_0" function="internal">
        <lane id=":247123161_0_0" index="0" disallow="tram rail_urban rail rail_electric rail_fast ship" speed="6.16" length="9.05" shape="64.37,352.21 62.31,350.71 60.37,350.34 58.54,351.09 56.82,352.97"/>
    </edge>
    <edge id=":247123161_1" function="internal">
        <lane id=":247123161_1_0" index="0" disallow="tram rail_urban rail rail_electric rail_fast ship" speed="27.78" length="15.70" shape="64.37,352.21 53.14,341.24"/>
        <lane id=":247123161_1_1" index="1" disallow="tram rail_urban rail rail_electric rail_fast ship" speed="27.78" length="15.70" shape="66.61,349.92 55.37,338.95"/>
    </edge>
    <edge id=":247123161_3" function="internal">
        <lane id=":247123161_3_0" index="0" disallow="tram rail_urban rail rail_electric rail_fast ship" speed="3.65" length="2.34" shape="66.61,349.92 66.31,348.51 66.58,347.66"/>
    </edge>
    <edge id=":247123161_14" function="internal">
        <lane id=":247123161_14_0" index="0" disallow="tram rail_urban rail rail_electric rail_fast ship" speed="3.65" length="2.34" shape="66.58,347.66 67.43,347.37 68.84,347.63"/>
    </edge>
    <edge id=":247123161_4" function="internal">
        <lane id=":247123161_4_0" index="0" disallow="tram rail_urban rail rail_electric rail_fast ship" speed="7.42" length="11.11" shape="69.66,335.47 68.33,337.88 68.12,340.33 69.04,342.82 71.08,345.35"/>
    </edge>
    <edge id=":247123161_5" function="internal">
        <lane id=":247123161_5_0" index="0" disallow="tram rail_urban rail rail_electric rail_fast ship" speed="22.22" length="21.70" shape="69.66,335.47 56.82,352.97"/>
    </edge>
    <edge id=":247123161_6" function="internal">
        <lane id=":247123161_6_0" index="0" disallow="tram rail_urban rail rail_electric rail_fast ship" speed="3.65" length="4.67" shape="69.66,335.47 68.29,335.92 67.41,335.73 67.03,334.92 67.15,333.48"/>
    </edge>
    <edge id=":247123161_7" function="internal">
        <lane id=":247123161_7_0" index="0" disallow="tram rail_urban rail rail_electric rail_fast ship" speed="6.17" length="8.64" shape="59.80,334.34 61.67,335.66 63.52,335.96 65.35,335.23 67.15,333.48"/>
    </edge>
    <edge id=":247123161_8" function="internal">
        <lane id=":247123161_8_0" index="0" disallow="tram rail_urban rail rail_electric rail_fast ship" speed="27.78" length="15.76" shape="59.80,334.34 71.08,345.35"/>
        <lane id=":247123161_8_1" index="1" disallow="tram rail_urban rail rail_electric rail_fast ship" speed="27.78" length="15.76" shape="57.57,336.63 68.84,347.63"/>
    </edge>
    <edge id=":247123161_10" function="internal">
        <lane id=":247123161_10_0" index="0" disallow="tram rail_urban rail rail_electric rail_fast ship" speed="3.65" length="2.34" shape="57.57,336.63 57.89,338.03 57.63,338.89"/>
    </edge>
    <edge id=":247123161_15" function="internal">
        <lane id=":247123161_15_0" index="0" disallow="tram rail_urban rail rail_electric rail_fast ship" speed="3.65" length="2.34" shape="57.63,338.89 56.79,339.20 55.37,338.95"/>
    </edge>
    <edge id=":247123161_11" function="internal">
        <lane id=":247123161_11_0" index="0" disallow="tram rail_urban rail rail_electric rail_fast ship" speed="7.60" length="11.00" shape="54.17,351.18 55.47,348.54 55.74,346.01 54.96,343.58 53.14,341.24"/>
    </edge>
    <edge id=":247123161_12" function="internal">
        <lane id=":247123161_12_0" index="0" disallow="tram rail_urban rail rail_electric rail_fast ship" speed="22.22" length="21.94" shape="54.17,351.18 67.15,333.48"/>
    </edge>
    <edge id=":247123161_13" function="internal">
        <lane id=":247123161_13_0" index="0" disallow="tram rail_urban rail rail_electric rail_fast ship" speed="3.65" length="4.67" shape="54.17,351.18 55.51,350.63 56.40,350.75 56.83,351.53 56.82,352.97"/>
    </edge>
    <edge id=":247123374_0" function="internal">
        <lane id=":247123374_0_0" index="0" disallow="tram rail_urban rail rail_electric rail_fast ship" speed="3.65" length="4.67" shape="3.40,287.79 3.13,286.37 3.43,285.53 4.28,285.26 5.69,285.56"/>
    </edge>
    <edge id=":247123464_0" function="internal">
        <lane id=":247123464_0_0" index="0" disallow="tram rail_urban rail rail_electric rail_fast ship" speed="3.65" length="4.67" shape="118.95,396.80 119.24,398.21 118.97,399.06 118.12,399.35 116.70,399.08"/>
    </edge>
    <edge id=":3188965077_0" function="internal">
        <lane id=":3188965077_0_0" index="0" disallow="tram rail_urban rail rail_electric rail_fast ship" speed="22.22" length="0.10" shape="71.74,332.84 71.70,332.90"/>
    </edge>
    <edge id=":3188965077_1" function="internal">
        <lane id=":3188965077_1_0" index="0" disallow="tram rail_urban rail rail_electric rail_fast ship" speed="22.22" length="0.10" shape="69.19,330.92 69.15,330.97"/>
    </edge>
    <edge id=":3188965078_0" function="internal">
        <lane id=":3188965078_0_0" index="0" disallow="tram rail_urban rail rail_electric rail_fast ship" speed="27.78" length="0.15" shape="52.99,341.10 52.88,341.00"/>
        <lane id=":3188965078_0_1" index="1" disallow="tram rail_urban rail rail_electric rail_fast ship" speed="27.78" length="0.15" shape="55.23,338.81 55.12,338.71"/>
    </edge>
    <edge id=":3188965078_2" function="internal">
        <lane id=":3188965078_2_0" index="0" disallow="tram rail_urban rail rail_electric rail_fast ship" speed="27.78" length="0.15" shape="59.59,334.13 59.70,334.23"/>
        <lane id=":3188965078_2_1" index="1" disallow="tram rail_urban rail rail_electric rail_fast ship" speed="27.78" length="0.15" shape="57.36,336.42 57.46,336.52"/>
    </edge>
    <edge id=":3188965079_0" function="internal">
        <lane id=":3188965079_0_0" index="0" disallow="tram rail_urban rail rail_electric rail_fast ship" speed="27.78" length="0.10" shape="66.57,354.36 66.57,354.36"/>
        <lane id=":3188965079_0_1" index="1" disallow="tram rail_urban rail rail_electric rail_fast ship" speed="27.78" length="0.10" shape="68.81,352.07 68.81,352.07"/>
    </edge>
    <edge id=":3188965079_2" function="internal">
        <lane id=":3188965079_2_0" index="0" disallow="tram rail_urban rail rail_electric rail_fast ship" speed="27.78" length="0.10" shape="73.28,347.50 73.28,347.50"/>
        <lane id=":3188965079_2_1" index="1" disallow="tram rail_urban rail rail_electric rail_fast ship" speed="27.78" length="0.10" shape="71.04,349.79 71.04,349.79"/>
    </edge>
    <edge id=":3188965080_0" function="internal">
        <lane id=":3188965080_0_0" index="0" disallow="tram rail_urban rail rail_electric rail_fast ship" speed="22.22" length="0.28" shape="55.47,354.97 55.31,355.21"/>
    </edge>
    <edge id=":3188965080_1" function="internal">
        <lane id=":3188965080_1_0" index="0" disallow="tram rail_urban rail rail_electric rail_fast ship" speed="22.22" length="0.31" shape="52.65,353.43 52.82,353.17"/>
    </edge>
    <edge id=":3188965082_0" function="internal">
        <lane id=":3188965082_0_0" index="0" disallow="tram rail_urban rail rail_electric rail_fast ship" speed="27.78" length="0.30" shape="107.88,394.88 107.67,394.68"/>
        <lane id=":3188965082_0_1" index="1" disallow="tram rail_urban rail rail_electric rail_fast ship" speed="27.78" length="0.30" shape="110.12,392.60 109.91,392.39"/>
    </edge>
    <edge id=":3188965082_2" function="internal">
        <lane id=":3188965082_2_0" index="0" disallow="tram rail_urban rail rail_electric rail_fast ship" speed="27.78" length="0.30" shape="114.40,387.83 114.61,388.04"/>
        <lane id=":3188965082_2_1" index="1" disallow="tram rail_urban rail rail_electric rail_fast ship" speed="27.78" length="0.30" shape="112.15,390.11 112.37,390.32"/>
    </edge>
    <edge id=":3866999054_0" function="internal">
        <lane id=":3866999054_0_0" index="0" disallow="tram rail_urban rail rail_electric rail_fast ship" speed="3.65" length="4.67" shape="1.33,436.27 0.00,436.83 -0.89,436.72 -1.33,435.94 -1.33,434.50"/>
    </edge>
    <edge id=":4002907350_0" function="internal">
        <lane id=":4002907350_0_0" index="0" disallow="tram rail_urban rail rail_electric rail_fast ship" speed="27.78" length="0.35" shape="9.96,299.08 9.69,298.81"/>
        <lane id=":4002907350_0_1" index="1" disallow="tram rail_urban rail rail_electric rail_fast ship" speed="27.78" length="0.35" shape="12.20,296.79 11.98,296.57"/>
    </edge>
    <edge id=":4002907350_2" function="internal">
        <lane id=":4002907350_2_0" index="0" disallow="tram rail_urban rail rail_electric rail_fast ship" speed="27.78" length="0.20" shape="16.55,292.10 16.67,292.21"/>
        <lane id=":4002907350_2_1" index="1" disallow="tram rail_urban rail rail_electric rail_fast ship" speed="27.78" length="0.20" shape="14.26,294.33 14.43,294.50"/>
    </edge>

    <edge id="-238059324#0" from="3188965077" to="247123161" priority="10" type="highway.tertiary">
        <lane id="-238059324#0_0" index="0" disallow="tram rail_urban rail rail_electric rail_fast ship" speed="22.22" length="3.28" shape="71.70,332.90 69.66,335.47"/>
    </edge>
    <edge id="-238059324#1" from="212788159" to="3188965077" priority="10" type="highway.tertiary" shape="302.71,0.00 261.07,57.76 215.62,124.97 211.15,131.52 175.74,182.57 161.16,204.16 137.02,239.89 132.03,246.38 70.44,331.91">
        <lane id="-238059324#1_0" index="0" disallow="tram rail_urban rail rail_electric rail_fast ship" speed="22.22" length="405.15" shape="304.01,0.94 262.38,58.67 216.95,125.87 212.47,132.42 177.06,183.48 162.48,205.05 138.32,240.83 133.31,247.34 71.74,332.84"/>
    </edge>
    <edge id="-238059328#0" from="3188965078" to="247123161" priority="11" type="highway.secondary">
        <lane id="-238059328#0_0" index="0" disallow="tram rail_urban rail rail_electric rail_fast ship" speed="27.78" length="0.15" shape="59.70,334.23 59.80,334.34"/>
        <lane id="-238059328#0_1" index="1" disallow="tram rail_urban rail rail_electric rail_fast ship" speed="27.78" length="0.15" shape="57.46,336.52 57.57,336.63"/>
    </edge>
    <edge id="-238059328#1" from="4002907350" to="3188965078" priority="11" type="highway.secondary">
        <lane id="-238059328#1_0" index="0" disallow="tram rail_urban rail rail_electric rail_fast ship" speed="27.78" length="60.00" shape="16.67,292.21 59.59,334.13"/>
        <lane id="-238059328#1_1" index="1" disallow="tram rail_urban rail rail_electric rail_fast ship" speed="27.78" length="60.00" shape="14.43,294.50 57.36,336.42"/>
    </edge>
    <edge id="-238059328#2" from="247123374" to="4002907350" priority="11" type="highway.secondary">
        <lane id="-238059328#2_0" index="0" disallow="tram rail_urban rail rail_electric rail_fast ship" speed="27.78" length="12.27" shape="7.98,283.32 16.55,292.10"/>
        <lane id="-238059328#2_1" index="1" disallow="tram rail_urban rail rail_electric rail_fast ship" speed="27.78" length="12.27" shape="5.69,285.56 14.26,294.33"/>
    </edge>
    <edge id="-309265401#0" from="3188965082" to="247123464" priority="11" type="highway.secondary">
        <lane id="-309265401#0_0" index="0" disallow="tram rail_urban rail rail_electric rail_fast ship" speed="27.78" length="9.23" shape="114.61,388.04 121.19,394.52"/>
        <lane id="-309265401#0_1" index="1" disallow="tram rail_urban rail rail_electric rail_fast ship" speed="27.78" length="9.23" shape="112.37,390.32 118.95,396.80"/>
    </edge>
    <edge id="-309265401#1" from="3188965079" to="3188965082" priority="11" type="highway.secondary" shape="69.93,350.93 81.47,362.21 88.13,368.76 111.14,391.36">
        <lane id="-309265401#1_0" index="0" disallow="tram rail_urban rail rail_electric rail_fast ship" speed="27.78" length="57.59" shape="73.28,347.50 84.83,358.78 91.49,365.33 114.40,387.83"/>
        <lane id="-309265401#1_1" index="1" disallow="tram rail_urban rail rail_electric rail_fast ship" speed="27.78" length="57.59" shape="71.04,349.79 82.59,361.06 89.25,367.61 112.15,390.11"/>
    </edge>
    <edge id="-309265401#2" from="247123161" to="3188965079" priority="11" type="highway.secondary">
        <lane id="-309265401#2_0" index="0" disallow="tram rail_urban rail rail_electric rail_fast ship" speed="27.78" length="3.08" shape="71.08,345.35 73.28,347.50"/>
        <lane id="-309265401#2_1" index="1" disallow="tram rail_urban rail rail_electric rail_fast ship" speed="27.78" length="3.08" shape="68.84,347.63 71.04,349.79"/>
    </edge>
    <edge id="-383432312#0" from="3188965080" to="3866999054" priority="10" type="highway.tertiary" shape="54.06,354.20 32.22,387.01 26.02,396.31 0.00,435.39">
        <lane id="-383432312#0_0" index="0" disallow="tram rail_urban rail rail_electric rail_fast ship" speed="22.22" length="97.39" shape="55.31,355.21 33.55,387.90 27.36,397.19 1.33,436.27"/>
    </edge>
    <edge id="-383432312#1" from="247123161" to="3188965080" priority="10" type="highway.tertiary">
        <lane id="-383432312#1_0" index="0" disallow="tram rail_urban rail rail_electric rail_fast ship" speed="22.22" length="2.41" shape="56.82,352.97 55.47,354.97"/>
    </edge>
    <edge id="238059324#0" from="247123161" to="3188965077" priority="10" type="highway.tertiary">
        <lane id="238059324#0_0" index="0" disallow="tram rail_urban rail rail_electric rail_fast ship" speed="22.22" length="3.28" shape="67.15,333.48 69.19,330.92"/>
    </edge>
    <edge id="238059324#1" from="3188965077" to="212788159" priority="10" type="highway.tertiary" shape="70.44,331.91 132.03,246.38 137.02,239.89 161.16,204.16 175.74,182.57 211.15,131.52 215.62,124.97 261.07,57.76 302.71,0.00">
        <lane id="238059324#1_0" index="0" disallow="tram rail_urban rail rail_electric rail_fast ship" speed="22.22" length="405.15" shape="69.15,330.97 130.74,245.42 135.72,238.95 159.83,203.26 174.42,181.67 209.83,130.60 214.30,124.07 259.76,56.84 301.41,-0.94"/>
    </edge>
    <edge id="238059328#0" from="247123161" to="3188965078" priority="11" type="highway.secondary">
        <lane id="238059328#0_0" index="0" disallow="tram rail_urban rail rail_electric rail_fast ship" speed="27.78" length="0.20" shape="53.14,341.24 52.99,341.10"/>
        <lane id="238059328#0_1" index="1" disallow="tram rail_urban rail rail_electric rail_fast ship" speed="27.78" length="0.20" shape="55.37,338.95 55.23,338.81"/>
    </edge>
    <edge id="238059328#1" from="3188965078" to="4002907350" priority="11" type="highway.secondary">
        <lane id="238059328#1_0" index="0" disallow="tram rail_urban rail rail_electric rail_fast ship" speed="27.78" length="60.00" shape="52.88,341.00 9.96,299.08"/>
        <lane id="238059328#1_1" index="1" disallow="tram rail_urban rail rail_electric rail_fast ship" speed="27.78" length="60.00" shape="55.12,338.71 12.20,296.79"/>
    </edge>
    <edge id="238059328#2" from="4002907350" to="247123374" priority="11" type="highway.secondary">
        <lane id="238059328#2_0" index="0" disallow="tram rail_urban rail rail_electric rail_fast ship" speed="27.78" length="12.27" shape="9.69,298.81 1.11,290.03"/>
        <lane id="238059328#2_1" index="1" disallow="tram rail_urban rail rail_electric rail_fast ship" speed="27.78" length="12.27" shape="11.98,296.57 3.40,287.79"/>
    </edge>
    <edge id="309265401#0" from="247123464" to="3188965082" priority="11" type="highway.secondary">
        <lane id="309265401#0_0" index="0" disallow="tram rail_urban rail rail_electric rail_fast ship" speed="27.78" length="9.23" shape="114.46,401.36 107.88,394.88"/>
        <lane id="309265401#0_1" index="1" disallow="tram rail_urban rail rail_electric rail_fast ship" speed="27.78" length="9.23" shape="116.70,399.08 110.12,392.60"/>
    </edge>
    <edge id="309265401#1" from="3188965082" to="3188965079" priority="11" type="highway.secondary" shape="111.14,391.36 88.13,368.76 81.47,362.21 69.93,350.93">
        <lane id="309265401#1_0" index="0" disallow="tram rail_urban rail rail_electric rail_fast ship" speed="27.78" length="57.57" shape="107.67,394.68 84.77,372.18 78.11,365.64 66.57,354.36"/>
        <lane id="309265401#1_1" index="1" disallow="tram rail_urban rail rail_electric rail_fast ship" speed="27.78" length="57.57" shape="109.91,392.39 87.01,369.90 80.35,363.35 68.81,352.07"/>
    </edge>
    <edge id="309265401#2" from="3188965079" to="247123161" priority="11" type="highway.secondary">
        <lane id="309265401#2_0" index="0" disallow="tram rail_urban rail rail_electric rail_fast ship" speed="27.78" length="3.08" shape="66.57,354.36 64.37,352.21"/>
        <lane id="309265401#2_1" index="1" disallow="tram rail_urban rail rail_electric rail_fast ship" speed="27.78" length="3.08" shape="68.81,352.07 66.61,349.92"/>
    </edge>
    <edge id="383432312#0" from="3866999054" to="3188965080" priority="10" type="highway.tertiary" shape="0.00,435.39 26.02,396.31 32.22,387.01 54.06,354.20">
        <lane id="383432312#0_0" index="0" disallow="tram rail_urban rail rail_electric rail_fast ship" speed="22.22" length="97.39" shape="-1.33,434.50 24.69,395.42 30.88,386.12 52.65,353.43"/>
    </edge>
    <edge id="383432312#1" from="3188965080" to="247123161" priority="10" type="highway.tertiary">
        <lane id="383432312#1_0" index="0" disallow="tram rail_urban rail rail_electric rail_fast ship" speed="22.22" length="2.41" shape="52.82,353.17 54.17,351.18"/>
    </edge>

    <tlLogic id="3188965077" type="static" programID="0" offset="0">
        <phase duration="80" state="GG"/>
        <phase duration="5"  state="yy"/>
        <phase duration="5"  state="rr"/>
    </tlLogic>
    <tlLogic id="3188965078" type="static" programID="0" offset="0">
        <phase duration="79" state="GGGG"/>
        <phase duration="6"  state="yyyy"/>
        <phase duration="5"  state="rrrr"/>
    </tlLogic>
    <tlLogic id="3188965079" type="static" programID="0" offset="0">
        <phase duration="79" state="GGGG"/>
        <phase duration="6"  state="yyyy"/>
        <phase duration="5"  state="rrrr"/>
    </tlLogic>
    <tlLogic id="3188965080" type="static" programID="0" offset="0">
        <phase duration="80" state="GG"/>
        <phase duration="5"  state="yy"/>
        <phase duration="5"  state="rr"/>
    </tlLogic>
    <tlLogic id="3188965082" type="static" programID="0" offset="0">
        <phase duration="79" state="GGGG"/>
        <phase duration="6"  state="yyyy"/>
        <phase duration="5"  state="rrrr"/>
    </tlLogic>
    <tlLogic id="3866999054" type="static" programID="0" offset="0">
        <phase duration="80" state="G"/>
        <phase duration="5"  state="y"/>
        <phase duration="5"  state="r"/>
    </tlLogic>
    <tlLogic id="4002907350" type="static" programID="0" offset="0">
        <phase duration="79" state="GGGG"/>
        <phase duration="6"  state="yyyy"/>
        <phase duration="5"  state="rrrr"/>
    </tlLogic>

    <junction id="212788159" type="priority" x="302.71" y="0.00" incLanes="238059324#1_0" intLanes=":212788159_0_0" shape="302.71,-0.00 300.12,-1.87 302.71,0.00">
        <request index="0" response="0" foes="0" cont="0"/>
    </junction>
    <junction id="247123161" type="priority" x="61.72" y="342.91" incLanes="309265401#2_0 309265401#2_1 -238059324#0_0 -238059328#0_0 -238059328#0_1 383432312#1_0" intLanes=":247123161_0_0 :247123161_1_0 :247123161_1_1 :247123161_14_0 :247123161_4_0 :247123161_5_0 :247123161_6_0 :247123161_7_0 :247123161_8_0 :247123161_8_1 :247123161_15_0 :247123161_11_0 :247123161_12_0 :247123161_13_0" shape="63.25,353.36 72.20,344.20 70.20,341.53 69.79,340.23 69.77,338.95 70.14,337.70 70.91,336.47 65.90,332.49 60.81,333.09 51.88,342.25 52.85,350.28 58.15,353.87 59.71,352.34 60.55,352.09 61.41,352.17 62.32,352.60">
        <request index="0"  response="00000000000000" foes="10000000100000" cont="0"/>
        <request index="1"  response="00000000000000" foes="01110000100000" cont="0"/>
        <request index="2"  response="00000000000000" foes="01110000100000" cont="0"/>
        <request index="3"  response="00001100000000" foes="00001100000000" cont="1"/>
        <request index="4"  response="00001100000000" foes="00001100000000" cont="0"/>
        <request index="5"  response="00001100000111" foes="10001100000111" cont="0"/>
        <request index="6"  response="01000010000000" foes="01000010000000" cont="0"/>
        <request index="7"  response="00000000000000" foes="01000001000000" cont="0"/>
        <request index="8"  response="00000000000000" foes="01000000111000" cont="0"/>
        <request index="9"  response="00000000000000" foes="01000000111000" cont="0"/>
        <request index="10" response="00000000000110" foes="00000000000110" cont="1"/>
        <request index="11" response="00000000000110" foes="00000000000110" cont="0"/>
        <request index="12" response="00001110000110" foes="00001111000110" cont="0"/>
        <request index="13" response="00000000100001" foes="00000000100001" cont="0"/>
    </junction>
    <junction id="247123374" type="priority" x="4.54" y="286.67" incLanes="238059328#2_0 238059328#2_1" intLanes=":247123374_0_0" shape="4.54,286.67 -0.03,291.15 4.54,286.67">
        <request index="0" response="0" foes="0" cont="0"/>
    </junction>
    <junction id="247123464" type="priority" x="117.83" y="397.94" incLanes="-309265401#0_0 -309265401#0_1" intLanes=":247123464_0_0" shape="117.83,397.94 122.32,393.38 117.83,397.94">
        <request index="0" response="0" foes="0" cont="0"/>
    </junction>
    <junction id="3188965077" type="traffic_light" x="70.44" y="331.91" incLanes="-238059324#1_0 238059324#0_0" intLanes=":3188965077_0_0 :3188965077_1_0" shape="73.10,333.70 67.90,329.96 72.89,333.97">
        <request index="0" response="00" foes="00" cont="0"/>
        <request index="1" response="00" foes="00" cont="0"/>
    </junction>
    <junction id="3188965078" type="traffic_light" x="56.35" y="337.67" incLanes="238059328#0_0 238059328#0_1 -238059328#1_0 -238059328#1_1" intLanes=":3188965078_0_0 :3188965078_0_1 :3188965078_2_0 :3188965078_2_1" shape="51.98,342.35 60.92,333.19 60.71,332.99 51.77,342.14">
        <request index="0" response="0000" foes="0000" cont="0"/>
        <request index="1" response="0000" foes="0000" cont="0"/>
        <request index="2" response="0000" foes="0000" cont="0"/>
        <request index="3" response="0000" foes="0000" cont="0"/>
    </junction>
    <junction id="3188965079" type="traffic_light" x="69.93" y="350.93" incLanes="309265401#1_0 309265401#1_1 -309265401#2_0 -309265401#2_1" intLanes=":3188965079_0_0 :3188965079_0_1 :3188965079_2_0 :3188965079_2_1" shape="65.45,355.51 74.40,346.35 65.45,355.51">
        <request index="0" response="0000" foes="0000" cont="0"/>
        <request index="1" response="0000" foes="0000" cont="0"/>
        <request index="2" response="0000" foes="0000" cont="0"/>
        <request index="3" response="0000" foes="0000" cont="0"/>
    </junction>
    <junction id="3188965080" type="traffic_light" x="54.06" y="354.20" incLanes="-383432312#1_0 383432312#0_0" intLanes=":3188965080_0_0 :3188965080_1_0" shape="56.79,355.87 51.49,352.28 51.31,352.55 56.64,356.09">
        <request index="0" response="00" foes="00" cont="0"/>
        <request index="1" response="00" foes="00" cont="0"/>
    </junction>
    <junction id="3188965082" type="traffic_light" x="111.14" y="391.36" incLanes="309265401#0_0 309265401#0_1 -309265401#1_0 -309265401#1_1" intLanes=":3188965082_0_0 :3188965082_0_1 :3188965082_2_0 :3188965082_2_1" shape="106.76,396.02 115.74,386.90 115.52,386.69 106.55,395.82">
        <request index="0" response="0000" foes="0000" cont="0"/>
        <request index="1" response="0000" foes="0000" cont="0"/>
        <request index="2" response="0000" foes="0000" cont="0"/>
        <request index="3" response="0000" foes="0000" cont="0"/>
    </junction>
    <junction id="3866999054" type="traffic_light" x="0.00" y="435.39" incLanes="-383432312#0_0" intLanes=":3866999054_0_0" shape="0.00,435.39 2.66,437.16 0.00,435.39">
        <request index="0" response="0" foes="0" cont="0"/>
    </junction>
    <junction id="4002907350" type="traffic_light" x="13.22" y="295.55" incLanes="238059328#1_0 238059328#1_1 -238059328#2_0 -238059328#2_1" intLanes=":4002907350_0_0 :4002907350_0_1 :4002907350_2_0 :4002907350_2_1" shape="8.84,300.22 17.78,291.06 17.70,290.98 8.54,299.92">
        <request index="0" response="0000" foes="0000" cont="0"/>