<?xml version="1.0" encoding="UTF-8"?>

<!-- generated on Thu Jan  9 09:39:54 2020 by Eclipse SUMO netedit Version 1.4.0
<configuration xmlns:xsi="http://www.w3.org/2001/XMLSchema-instance" xsi:noNamespaceSchemaLocation="http://sumo.dlr.de/xsd/netconvertConfiguration.xsd">

    <input>
        <sumo-net-file value="intersection.tls.net.xml"/>
    </input>

    <output>
        <output-file value="intersection.tls.net.xml"/>
    </output>

    <processing>
        <geometry.min-radius.fix.railways value="false"/>
        <geometry.max-grade.fix value="false"/>
        <offset.disable-normalization value="true"/>
        <lefthand value="false"/>
    </processing>

    <junctions>
        <no-turnarounds value="true"/>
        <junctions.corner-detail value="5"/>
        <junctions.limit-turn-speed value="5.5"/>
        <rectangular-lane-cut value="false"/>
    </junctions>

    <pedestrian>
        <walkingareas value="false"/>
    </pedestrian>

    <report>
        <aggregate-warnings value="5"/>
    </report>

</configuration>
-->

<net version="1.3" junctionCornerDetail="5" limitTurnSpeed="5.50" xmlns:xsi="http://www.w3.org/2001/XMLSchema-instance" xsi:noNamespaceSchemaLocation="http://sumo.dlr.de/xsd/net_file.xsd">

    <location netOffset="-487342.39,-4286395.93" convBoundary="0.00,0.00,53.00,51.88" origBoundary="-9.148047,38.723582,-9.140555,38.727775" projParameter="+proj=utm +zone=29 +ellps=WGS84 +datum=WGS84 +units=m +no_defs"/>

    <type id="highway.bridleway" priority="1" numLanes="1" speed="2.78" allow="pedestrian" oneway="1" width="2.00"/>
    <type id="highway.bus_guideway" priority="1" numLanes="1" speed="27.78" allow="bus" oneway="1"/>
    <type id="highway.cycleway" priority="1" numLanes="1" speed="8.33" allow="bicycle" oneway="0" width="1.00"/>
    <type id="highway.footway" priority="1" numLanes="1" speed="2.78" allow="pedestrian" oneway="1" width="2.00"/>
    <type id="highway.ford" priority="1" numLanes="1" speed="2.78" allow="army" oneway="0"/>
    <type id="highway.living_street" priority="2" numLanes="1" speed="2.78" disallow="tram rail_urban rail rail_electric rail_fast ship" oneway="0"/>
    <type id="highway.motorway" priority="14" numLanes="2" speed="39.44" allow="private emergency authority army vip passenger hov taxi bus coach delivery truck trailer motorcycle evehicle custom1 custom2" oneway="1"/>
    <type id="highway.motorway_link" priority="9" numLanes="1" speed="22.22" allow="private emergency authority army vip passenger hov taxi bus coach delivery truck trailer motorcycle evehicle custom1 custom2" oneway="1"/>
    <type id="highway.path" priority="1" numLanes="1" speed="2.78" allow="pedestrian bicycle" oneway="1" width="2.00"/>
    <type id="highway.pedestrian" priority="1" numLanes="1" speed="2.78" allow="pedestrian" oneway="1" width="2.00"/>
    <type id="highway.primary" priority="12" numLanes="2" speed="27.78" disallow="tram rail_urban rail rail_electric rail_fast ship" oneway="0"/>
    <type id="highway.primary_link" priority="7" numLanes="1" speed="22.22" disallow="tram rail_urban rail rail_electric rail_fast ship" oneway="0"/>
    <type id="highway.raceway" priority="15" numLanes="2" speed="83.33" allow="vip" oneway="0"/>
    <type id="highway.residential" priority="3" numLanes="1" speed="13.89" disallow="tram rail_urban rail rail_electric rail_fast ship" oneway="0"/>
    <type id="highway.secondary" priority="11" numLanes="1" speed="27.78" disallow="tram rail_urban rail rail_electric rail_fast ship" oneway="0"/>
    <type id="highway.secondary_link" priority="6" numLanes="1" speed="22.22" disallow="tram rail_urban rail rail_electric rail_fast ship" oneway="0"/>
    <type id="highway.service" priority="1" numLanes="1" speed="5.56" allow="pedestrian delivery bicycle" oneway="0"/>
    <type id="highway.stairs" priority="1" numLanes="1" speed="1.39" allow="pedestrian" oneway="1" width="2.00"/>
    <type id="highway.step" priority="1" numLanes="1" speed="1.39" allow="pedestrian" oneway="1" width="2.00"/>
    <type id="highway.steps" priority="1" numLanes="1" speed="1.39" allow="pedestrian" oneway="1" width="2.00"/>
    <type id="highway.tertiary" priority="10" numLanes="1" speed="22.22" disallow="tram rail_urban rail rail_electric rail_fast ship" oneway="0"/>
    <type id="highway.tertiary_link" priority="5" numLanes="1" speed="22.22" disallow="tram rail_urban rail rail_electric rail_fast ship" oneway="0"/>
    <type id="highway.track" priority="1" numLanes="1" speed="5.56" disallow="tram rail_urban rail rail_electric rail_fast ship" oneway="0"/>
    <type id="highway.trunk" priority="13" numLanes="2" speed="27.78" disallow="pedestrian bicycle tram rail_urban rail rail_electric rail_fast ship" oneway="0"/>
    <type id="highway.trunk_link" priority="8" numLanes="1" speed="22.22" disallow="pedestrian bicycle tram rail_urban rail rail_electric rail_fast ship" oneway="0"/>
    <type id="highway.unclassified" priority="4" numLanes="1" speed="13.89" disallow="tram rail_urban rail rail_electric rail_fast ship" oneway="0"/>
    <type id="highway.unsurfaced" priority="1" numLanes="1" speed="8.33" disallow="tram rail_urban rail rail_electric rail_fast ship" oneway="0"/>
    <type id="railway.highspeed" priority="21" numLanes="1" speed="69.44" allow="rail_fast" oneway="1"/>
    <type id="railway.light_rail" priority="19" numLanes="1" speed="27.78" allow="rail_urban" oneway="1"/>
    <type id="railway.preserved" priority="16" numLanes="1" speed="27.78" allow="rail" oneway="1"/>
    <type id="railway.rail" priority="20" numLanes="1" speed="44.44" allow="rail" oneway="1"/>
    <type id="railway.subway" priority="18" numLanes="1" speed="27.78" allow="rail_urban" oneway="1"/>
    <type id="railway.tram" priority="17" numLanes="1" speed="13.89" allow="tram" oneway="1"/>

    <edge id=":247123161_0" function="internal">
        <lane id=":247123161_0_0" index="0" disallow="tram rail_urban rail rail_electric rail_fast ship" speed="6.15" length="9.06" shape="28.21,34.25 26.15,32.75 24.21,32.38 22.38,33.14 20.67,35.03"/>
    </edge>
    <edge id=":247123161_1" function="internal">
        <lane id=":247123161_1_0" index="0" disallow="tram rail_urban rail rail_electric rail_fast ship" speed="27.78" length="16.49" shape="28.21,34.25 16.42,22.73"/>
        <lane id=":247123161_1_1" index="1" disallow="tram rail_urban rail rail_electric rail_fast ship" speed="27.78" length="16.49" shape="30.45,31.96 18.65,20.44"/>
    </edge>
    <edge id=":247123161_3" function="internal">
        <lane id=":247123161_3_0" index="0" disallow="tram rail_urban rail rail_electric rail_fast ship" speed="7.59" length="11.43" shape="33.34,17.20 32.04,19.70 31.86,22.24 32.82,24.80 34.92,27.38"/>
    </edge>
    <edge id=":247123161_4" function="internal">
        <lane id=":247123161_4_0" index="0" disallow="tram rail_urban rail rail_electric rail_fast ship" speed="22.22" length="21.87" shape="33.34,17.20 20.67,35.03"/>
    </edge>
    <edge id=":247123161_5" function="internal">
        <lane id=":247123161_5_0" index="0" disallow="tram rail_urban rail rail_electric rail_fast ship" speed="6.25" length="9.05" shape="23.12,15.86 25.16,17.35 27.12,17.75 28.99,17.06 30.78,15.28"/>
    </edge>
    <edge id=":247123161_6" function="internal">
        <lane id=":247123161_6_0" index="0" disallow="tram rail_urban rail rail_electric rail_fast ship" speed="27.78" length="16.49" shape="23.12,15.86 34.92,27.38"/>
        <lane id=":247123161_6_1" index="1" disallow="tram rail_urban rail rail_electric rail_fast ship" speed="27.78" length="16.49" shape="20.89,18.15 32.68,29.67"/>
    </edge>
    <edge id=":247123161_8" function="internal">
        <lane id=":247123161_8_0" index="0" disallow="tram rail_urban rail rail_electric rail_fast ship" speed="7.84" length="11.69" shape="18.02,33.25 19.28,30.56 19.43,27.91 18.48,25.30 16.42,22.73"/>
    </edge>
    <edge id=":247123161_9" function="internal">
        <lane id=":247123161_9_0" index="0" disallow="tram rail_urban rail rail_electric rail_fast ship" speed="22.22" length="22.04" shape="18.02,33.25 30.78,15.28"/>
    </edge>

    <edge id="-238059324" from="-108109" to="247123161" priority="10" type="highway.tertiary">
        <lane id="-238059324_0" index="0" disallow="tram rail_urban rail rail_electric rail_fast ship" speed="22.22" length="20.03" shape="45.39,1.19 33.34,17.20"/>
    </edge>
    <edge id="-238059328" from="-108107" to="247123161" priority="11" type="highway.secondary">
        <lane id="-238059328_0" index="0" disallow="tram rail_urban rail rail_electric rail_fast ship" speed="27.78" length="27.62" shape="3.35,-3.43 23.12,15.86"/>
        <lane id="-238059328_1" index="1" disallow="tram rail_urban rail rail_electric rail_fast ship" speed="27.78" length="27.62" shape="1.12,-1.14 20.89,18.15"/>
    </edge>
    <edge id="-309265401" from="247123161" to="247123464" priority="11" type="highway.secondary" shape="25.53,24.92 45.28,44.22 48.45,47.53 51.94,50.77 53.00,51.79">
        <lane id="-309265401_0" index="0" disallow="tram rail_urban rail rail_electric rail_fast ship" speed="27.78" length="29.97" shape="34.92,27.38 48.69,40.84 51.82,44.11 55.22,47.27 56.33,48.33"/>
        <lane id="-309265401_1" index="1" disallow="tram rail_urban rail rail_electric rail_fast ship" speed="27.78" length="29.97" shape="32.68,29.67 46.42,43.09 49.57,46.39 53.03,49.60 54.11,50.64"/>
    </edge>
    <edge id="-383432312" from="247123161" to="-108105" priority="10" type="highway.tertiary">
        <lane id="-383432312_0" index="0" disallow="tram rail_urban rail rail_electric rail_fast ship" speed="22.22" length="21.37" shape="20.67,35.03 8.77,52.77"/>
    </edge>
    <edge id="238059324" from="247123161" to="-108109" priority="10" type="highway.tertiary">
        <lane id="238059324_0" index="0" disallow="tram rail_urban rail rail_electric rail_fast ship" speed="22.22" length="20.03" shape="30.78,15.28 42.83,-0.73"/>
    </edge>
    <edge id="238059328" from="247123161" to="-108107" priority="11" type="highway.secondary">
        <lane id="238059328_0" index="0" disallow="tram rail_urban rail rail_electric rail_fast ship" speed="27.78" length="27.62" shape="16.42,22.73 -3.35,3.43"/>
        <lane id="238059328_1" index="1" disallow="tram rail_urban rail rail_electric rail_fast ship" speed="27.78" length="27.62" shape="18.65,20.44 -1.12,1.14"/>
    </edge>
    <edge id="309265401" from="247123464" to="247123161" priority="11" type="highway.secondary" shape="53.00,51.79 51.94,50.77 48.45,47.53 45.28,44.22 25.53,24.92">
        <lane id="309265401_0" index="0" disallow="tram rail_urban rail rail_electric rail_fast ship" speed="27.78" length="30.02" shape="49.67,55.25 48.66,54.27 45.08,50.95 41.87,47.60 28.21,34.25"/>
        <lane id="309265401_1" index="1" disallow="tram rail_urban rail rail_electric rail_fast ship" speed="27.78" length="30.02" shape="51.89,52.94 50.85,51.94 47.33,48.67 44.14,45.35 30.45,31.96"/>
    </edge>
    <edge id="383432312" from="-108105" to="247123161" priority="10" type="highway.tertiary">
        <lane id="383432312_0" index="0" disallow="tram rail_urban rail rail_electric rail_fast ship" speed="22.22" length="21.37" shape="6.11,50.99 18.02,33.25"/>
    </edge>

    <tlLogic id="247123161" type="static" programID="0" offset="0">
        <phase duration="39" state="GGGgrrrGGGgrrr"/>
        <phase duration="6"  state="yyyyrrryyyyrrr"/>
        <phase duration="39" state="rrrrGGgrrrrGGg"/>
        <phase duration="6"  state="rrrryyyrrrryyy"/>
    </tlLogic>

    <junction id="-108105" type="dead_end" x="7.44" y="51.88" incLanes="-383432312_0" intLanes="" shape="7.44,51.88 10.10,53.66 7.44,51.88"/>
    <junction id="-108107" type="dead_end" x="0.00" y="0.00" incLanes="238059328_0 238059328_1" intLanes="" shape="-0.00,0.00 -4.47,4.58 -0.00,0.00"/>
    <junction id="-108109" type="dead_end" x="44.11" y="0.23" incLanes="238059324_0" intLanes="" shape="44.11,0.23 41.55,-1.69 44.11,0.23"/>
    <junction id="247123161" type="traffic_light" x="25.53" y="24.92" incLanes="309265401_0 309265401_1 -238059324_0 -238059328_0 -238059328_1 383432312_0" intLanes=":247123161_0_0 :247123161_1_0 :247123161_1_1 :247123161_3_0 :247123161_4_0 :247123161_5_0 :247123161_6_0 :247123161_6_1 :247123161_8_0 :247123161_9_0" shape="27.09,35.39 36.04,26.24 33.96,23.47 33.52,22.11 33.49,20.77 33.85,19.46 34.62,18.16 29.51,14.31 27.85,15.78 26.99,16.01 26.10,15.91 25.18,15.48 24.24,14.72 15.30,23.88 17.35,26.67 17.78,28.08 17.82,29.50 17.45,30.92 16.69,32.35 22.00,35.92 23.56,34.39 24.39,34.13 25.25,34.21 26.16,34.63">
        <request index="0" response="0000000000" foes="0000010000" cont="0"/>
        <request index="1" response="0000000000" foes="1100010000" cont="0"/>
        <request index="2" response="0000000000" foes="1100010000" cont="0"/>
        <request index="3" response="0011000000" foes="0011000000" cont="0"/>
        <request index="4" response="0011000111" foes="0011000111" cont="0"/>
        <request index="5" response="0000000000" foes="1000000000" cont="0"/>
        <request index="6" response="0000000000" foes="1000011000" cont="0"/>
        <request index="7" response="0000000000" foes="1000011000" cont="0"/>
        <request index="8" response="0000000110" foes="0000000110" cont="0"/>
        <request index="9" response="0011100110" foes="0011100110" cont="0"/>
    </junction>
    <junction id="247123464" type="dead_end" x="53.00" y="51.79" incLanes="-309265401_0 -309265401_1" intLanes="" shape="53.00,51.79 48.56,56.40 57.44,47.18"/>

    <connection from="-238059324" to="-309265401" fromLane="0" toLane="0" via=":247123161_3_0" tl="247123161" linkIndex="4" dir="r" state="o"/>
    <connection from="-238059324" to="-383432312" fromLane="0" toLane="0" via=":247123161_4_0" tl="247123161" linkIndex="5" dir="s" state="o"/>
    <connection from="-238059328" to="238059324" fromLane="0" toLane="0" via=":247123161_5_0" tl="247123161" linkIndex="7" dir="r" state="O"/>
    <connection from="-238059328" to="-309265401" fromLane="0" toLane="0" via=":247123161_6_0" tl="247123161" linkIndex="8" dir="s" state="O"/>
    <connection from="-238059328" to="-309265401" fromLane="1" toLane="1" via=":247123161_6_1" tl="247123161" linkIndex="9" dir="s" state="O"/>
    <connection from="309265401" to="-383432312" fromLane="0" toLane="0" via=":247123161_0_0" tl="247123161" linkIndex="0" dir="r" state="O"/>
    <connection from="309265401" to="238059328" fromLane="0" toLane="0" via=":247123161_1_0" tl="247123161" linkIndex="1" dir="s" state="O"/>
    <connection from="309265401" to="238059328" fromLane="1" toLane="1" via=":247123161_1_1" tl="247123161" linkIndex="2" dir="s" state="O"/>
    <connection from="383432312" to="238059328" fromLane="0" toLane="0" via=":247123161_8_0" tl="247123161" linkIndex="11" dir="r" state="o"/>
    <connection from="383432312" to="238059324" fromLane="0" toLane="0" via=":247123161_9_0" tl="247123161" linkIndex="12" dir="s" state="o"/>

    <connection from=":247123161_0" to="-383432312" fromLane="0" toLane="0" dir="r" state="M"/>
    <connection from=":247123161_1" to="238059328" fromLane="0" toLane="0" dir="s" state="M"/>
    <connection from=":247123161_1" to="238059328" fromLane="1" toLane="1" dir="s" state="M"/>
    <connection from=":247123161_3" to="-309265401" fromLane="0" toLane="0" dir="r" state="M"/>
    <connection from=":247123161_4" to="-383432312" fromLane="0" toLane="0" dir="s" state="M"/>
    <connection from=":247123161_5" to="238059324" fromLane="0" toLane="0" dir="r" state="M"/>
    <connection from=":247123161_6" to="-309265401" fromLane="0" toLane="0" dir="s" state="M"/>
    <connection from=":247123161_6" to="-309265401" fromLane="1" toLane="1" dir="s" state="M"/>
    <connection from=":247123161_8" to="238059328" fromLane="0" toLane="0" dir="r" state="M"/>
    <connection from=":247123161_9" to="238059324" fromLane="0" toLane="0" dir="s" state="M"/>

</net>
