<?xml version="1.0" encoding="UTF-8"?>

<!-- generated on Thu Jan  9 09:56:22 2020 by Eclipse SUMO duarouter Version 1.4.0
<configuration xmlns:xsi="http://www.w3.org/2001/XMLSchema-instance" xsi:noNamespaceSchemaLocation="http://sumo.dlr.de/xsd/duarouterConfiguration.xsd">

    <input>
        <net-file value="intersection.net.xml"/>
        <route-files value="intersection.trips.xml"/>
    </input>

    <output>
        <output-file value="intersection.rou.xml"/>
        <alternatives-output value="intersection.rou.alt.xml"/>
    </output>

    <time>
        <begin value="0.0"/>
        <end value="280.0"/>
    </time>

    <report>
        <no-warnings value="true"/>
        <ignore-errors value="true"/>
        <no-step-log value="true"/>
    </report>

</configuration>
-->

<routes xmlns:xsi="http://www.w3.org/2001/XMLSchema-instance" xsi:noNamespaceSchemaLocation="http://sumo.dlr.de/xsd/routes_file.xsd">
    <vehicle id="2" depart="4.00">
        <route edges="309265401 -383432312"/>
    </vehicle>
    <vehicle id="4" depart="8.00">
        <route edges="383432312 238059328"/>
    </vehicle>
    <vehicle id="6" depart="12.00">
        <route edges="383432312 238059324"/>
    </vehicle>
    <vehicle id="7" depart="14.00">
        <route edges="-238059324 -383432312"/>
    </vehicle>
    <vehicle id="8" depart="16.00">
        <route edges="309265401 -383432312"/>
    </vehicle>
    <vehicle id="10" depart="20.00">
        <route edges="309265401 238059328"/>
    </vehicle>
    <vehicle id="11" depart="22.00">
        <route edges="383432312 238059328"/>
    </vehicle>
    <vehicle id="13" depart="26.00">
        <route edges="-238059324 -309265401"/>
    </vehicle>
    <vehicle id="14" depart="28.00">
        <route edges="383432312 238059328"/>
    </vehicle>
    <vehicle id="15" depart="30.00">
        <route edges="383432312 238059328"/>
    </vehicle>
    <vehicle id="16" depart="32.00">
        <route edges="309265401 -383432312"/>
    </vehicle>
    <vehicle id="21" depart="42.00">
        <route edges="383432312 238059328"/>
    </vehicle>
    <vehicle id="22" depart="44.00">
        <route edges="309265401 238059328"/>
    </vehicle>
    <vehicle id="23" depart="46.00">
        <route edges="309265401 238059328"/>
    </vehicle>
    <vehicle id="24" depart="48.00">
        <route edges="309265401 238059328"/>
    </vehicle>
    <vehicle id="29" depart="58.00">
        <route edges="-238059324 -383432312"/>
    </vehicle>
    <vehicle id="30" depart="60.00">
        <route edges="309265401 -383432312"/>
    </vehicle>
    <vehicle id="32" depart="64.00">
        <route edges="-238059328 238059324"/>
    </vehicle>
    <vehicle id="35" depart="70.00">
        <route edges="-238059324 -309265401"/>
    </vehicle>
    <vehicle id="39" depart="78.00">
        <route edges="383432312 238059328"/>
    </vehicle>
    <vehicle id="40" depart="80.00">
        <route edges="383432312 238059324"/>
    </vehicle>
    <vehicle id="43" depart="86.00">
        <route edges="309265401 238059328"/>
    </vehicle>
    <vehicle id="44" depart="88.00">
        <route edges="309265401 -383432312"/>
    </vehicle>
    <vehicle id="48" depart="96.00">
        <route edges="-238059324 -309265401"/>
    </vehicle>
    <vehicle id="49" depart="98.00">
        <route edges="-238059328 238059324"/>
    </vehicle>
    <vehicle id="50" depart="100.00">
        <route edges="-238059324 -309265401"/>
    </vehicle>
    <vehicle id="54" depart="108.00">
        <route edges="383432312 238059324"/>
    </vehicle>
    <vehicle id="55" depart="110.00">
        <route edges="-238059328 238059324"/>
    </vehicle>
    <vehicle id="59" depart="118.00">
        <route edges="383432312 238059324"/>
    </vehicle>
    <vehicle id="62" depart="124.00">
        <route edges="-238059328 -309265401"/>
    </vehicle>
    <vehicle id="63" depart="126.00">
        <route edges="-238059328 -309265401"/>
    </vehicle>
    <vehicle id="65" depart="130.00">
        <route edges="309265401 238059328"/>
    </vehicle>
    <vehicle id="66" depart="132.00">
        <route edges="-238059328 -309265401"/>
    </vehicle>
    <vehicle id="67" depart="134.00">
        <route edges="-238059328 -309265401"/>
    </vehicle>
    <vehicle id="68" depart="136.00">
        <route edges="-238059324 -309265401"/>
    </vehicle>
    <vehicle id="69" depart="138.00">
        <route edges="309265401 238059328"/>
    </vehicle>
    <vehicle id="71" depart="142.00">
        <route edges="309265401 -383432312"/>
    </vehicle>
    <vehicle id="72" depart="144.00">
        <route edges="-238059328 -309265401"/>
    </vehicle>
    <vehicle id="74" depart="148.00">
        <route edges="-238059328 -309265401"/>
    </vehicle>
    <vehicle id="75" depart="150.00">
        <route edges="383432312 238059328"/>
    </vehicle>
    <vehicle id="77" depart="154.00">
        <route edges="309265401 -383432312"/>
    </vehicle>
    <vehicle id="78" depart="156.00">
        <route edges="-238059328 -309265401"/>
    </vehicle>
    <vehicle id="79" depart="158.00">
        <route edges="309265401 238059328"/>
    </vehicle>
    <vehicle id="84" depart="168.00">
        <route edges="383432312 238059324"/>
    </vehicle>
    <vehicle id="85" depart="170.00">
        <route edges="-238059328 -309265401"/>
    </vehicle>
    <vehicle id="89" depart="178.00">
        <route edges="-238059328 -309265401"/>
    </vehicle>
    <vehicle id="91" depart="182.00">
        <route edges="383432312 238059324"/>
    </vehicle>
    <vehicle id="92" depart="184.00">
        <route edges="383432312 238059324"/>
    </vehicle>
    <vehicle id="95" depart="190.00">
        <route edges="309265401 -383432312"/>
    </vehicle>
    <vehicle id="96" depart="192.00">
        <route edges="-238059324 -383432312"/>
    </vehicle>
    <vehicle id="97" depart="194.00">
        <route edges="-238059328 238059324"/>
    </vehicle>
    <vehicle id="98" depart="196.00">
        <route edges="383432312 238059324"/>
    </vehicle>
    <vehicle id="101" depart="202.00">
        <route edges="-238059328 238059324"/>
    </vehicle>
    <vehicle id="107" depart="214.00">
        <route edges="-238059324 -383432312"/>
    </vehicle>
    <vehicle id="108" depart="216.00">
        <route edges="383432312 238059324"/>
    </vehicle>
    <vehicle id="111" depart="222.00">
        <route edges="-238059324 -309265401"/>
    </vehicle>
    <vehicle id="112" depart="224.00">
        <route edges="-238059328 238059324"/>
    </vehicle>
    <vehicle id="115" depart="230.00">
        <route edges="-238059328 238059324"/>
    </vehicle>
    <vehicle id="118" depart="236.00">
        <route edges="-238059328 238059324"/>
    </vehicle>
    <vehicle id="121" depart="242.00">
        <route edges="309265401 -383432312"/>
    </vehicle>
    <vehicle id="122" depart="244.00">
        <route edges="-238059324 -309265401"/>
    </vehicle>
    <vehicle id="127" depart="254.00">
        <route edges="383432312 238059328"/>
    </vehicle>
    <vehicle id="129" depart="258.00">
        <route edges="309265401 -383432312"/>
    </vehicle>
    <vehicle id="130" depart="260.00">
        <route edges="309265401 238059328"/>
    </vehicle>
    <vehicle id="132" depart="264.00">
        <route edges="-238059324 -309265401"/>
    </vehicle>
    <vehicle id="135" depart="270.00">
        <route edges="-238059324 -383432312"/>
    </vehicle>
    <vehicle id="139" depart="278.00">
        <route edges="309265401 -383432312"/>
    </vehicle>
</routes>
