<?xml version="1.0" encoding="UTF-8"?>

<!-- generated on Wed Jan  8 08:48:56 2020 by Eclipse SUMO polyconvert Version 1.4.0
<configuration xmlns:xsi="http://www.w3.org/2001/XMLSchema-instance" xsi:noNamespaceSchemaLocation="http://sumo.dlr.de/xsd/polyconvertConfiguration.xsd">

    <input>
        <net-file value="intersection.net.xml"/>
        <osm-files value="intersection.osm"/>
        <type-file value="../typemap.xml"/>
    </input>

    <output>
        <output-file value="intersection.poly.xml"/>
    </output>

    <processing>
        <poi-layer-offset value="5"/>
    </processing>

</configuration>
-->

<additional xmlns:xsi="http://www.w3.org/2001/XMLSchema-instance" xsi:noNamespaceSchemaLocation="http://sumo.dlr.de/xsd/additional_file.xsd">
    <location netOffset="-487342.39,-4286395.93" convBoundary="-211.75,-317.99,440.17,181.99" origBoundary="-9.148047,38.723270,-9.140555,38.727775" projParameter="+proj=utm +zone=29 +ellps=WGS84 +datum=WGS84 +units=m +no_defs"/>

    <poly id="317371730" type="building" color="255,230,230" fill="1" layer="-1.00" shape="18.384756,-15.604723 24.889537,-8.368954 16.081549,1.010576 8.681867,-5.957445 18.384756,-15.604723"/>
    <poly id="317371731" type="building" color="255,230,230" fill="1" layer="-1.00" shape="16.081549,1.010576 21.653549,6.561138 23.653712,7.123891 25.626987,7.176243 28.337519,6.217633 39.463752,-10.322879 32.911227,-14.784429 27.192760,-8.550154 25.722482,-9.335681 24.889537,-8.368954 16.081549,1.010576"/>
    <poly id="430399306" type="building" color="255,230,230" fill="1" layer="-1.00" shape="4.711102,38.868121 -2.418644,48.577904 -9.258400,43.861623 -8.399899,42.573048 -11.202000,40.602308 -11.887059,41.635385 -19.866789,36.133067 -13.319039,26.679417 -5.426758,31.848982 -6.363687,33.015617 -2.978645,35.329427 -2.085354,34.051895 4.711102,38.868121"/>
    <poly id="430399320" type="building" color="255,230,230" fill="1" layer="-1.00" shape="-5.080386,9.155839 4.835450,18.660974 -0.864598,25.516652 -6.820198,19.256532 -8.563671,21.589596 -12.410180,18.799369 -5.080386,9.155839"/>
    <poly id="430399324" type="building" color="255,230,230" fill="1" layer="-1.00" shape="4.835450,18.660974 11.025366,24.687701 11.541252,26.595501 11.397464,29.103566 4.711102,38.868121 -2.085354,34.051895 -3.216605,33.276931 0.321543,28.011506 -1.280512,26.349560 -0.864598,25.516652 4.835450,18.660974"/>
    <poly id="547782592" type="building" color="255,230,230" fill="1" layer="-1.00" shape="27.555752,61.357988 28.709200,59.691665 42.164828,70.511731 49.165014,61.301541 32.266552,44.605713 29.700424,43.433541 27.492410,43.348270 25.086424,44.495040 17.965861,54.526592 27.555752,61.357988"/>
    <poly id="547782691" type="building" color="255,230,230" fill="1" layer="-1.00" shape="55.719246,0.992120 39.363201,24.953440 79.226808,63.462213 83.183459,58.972927 85.028105,60.146256 96.187958,42.851198 83.090027,32.840530 75.796304,43.360555 57.052834,25.258320 67.919011,9.151027 65.343710,7.679250 55.719246,0.992120"/>
    <poi id="3762547875" type="amenity" color="237,199,199" layer="4.00" x="27.55" y="44.46"/>
    <poi id="7058442906" type="amenity" color="237,199,199" layer="4.00" x="37.07" y="46.09"/>
</additional>
