<?xml version="1.0" encoding="UTF-8"?>

<!-- generated on Wed Jan  8 12:57:56 2020 by Eclipse SUMO duarouter Version 1.4.0
<configuration xmlns:xsi="http://www.w3.org/2001/XMLSchema-instance" xsi:noNamespaceSchemaLocation="http://sumo.dlr.de/xsd/duarouterConfiguration.xsd">

    <input>
        <net-file value="intersection.loop.net.xml"/>
        <route-files value="intersection.trips.xml"/>
    </input>

    <output>
        <output-file value="intersection.rou.xml"/>
        <alternatives-output value="intersection.rou.alt.xml"/>
    </output>

    <time>
        <begin value="0.0"/>
        <end value="50.0"/>
    </time>

    <report>
        <no-warnings value="true"/>
        <ignore-errors value="true"/>
        <no-step-log value="true"/>
    </report>

</configuration>
-->

<routes xmlns:xsi="http://www.w3.org/2001/XMLSchema-instance" xsi:noNamespaceSchemaLocation="http://sumo.dlr.de/xsd/routes_file.xsd">
    <vehicle id="0" depart="0.00">
        <route edges="-238059324#1 -238059324#0 238059324#0"/>
    </vehicle>
    <vehicle id="2" depart="6.00">
        <route edges="-238059324#1 -238059324#0 -309265401#1 -309265401#0"/>
    </vehicle>
    <vehicle id="4" depart="12.00">
        <route edges="-238059324#1 -238059324#0 -383432312#1 -383432312#0"/>
    </vehicle>
    <vehicle id="5" depart="15.00">
        <route edges="383432312#0 383432312#1 -383432312#1 -383432312#0"/>
    </vehicle>
    <vehicle id="6" depart="18.00">
        <route edges="-238059328#1 -238059328#0 238059324#0 238059324#1"/>
    </vehicle>
    <vehicle id="7" depart="21.00">
        <route edges="383432312#0 383432312#1 238059324#0 238059324#1"/>
    </vehicle>
    <vehicle id="8" depart="24.00">
        <route edges="-238059328#1 -238059328#0 -309265401#1 -309265401#0"/>
    </vehicle>
    <vehicle id="10" depart="30.00">
        <route edges="-238059324#1 -238059324#0 -309265401#1 -309265401#0"/>
    </vehicle>
    <vehicle id="11" depart="33.00">
        <route edges="383432312#0 383432312#1 238059324#0 238059324#1"/>
    </vehicle>
    <vehicle id="12" depart="36.00">
        <route edges="-238059328#1 -238059328#0 -309265401#1 -309265401#0"/>
    </vehicle>
    <vehicle id="13" depart="39.00">
        <route edges="309265401#0 309265401#1 238059328#0 238059328#1"/>
    </vehicle>
    <vehicle id="14" depart="42.00">
        <route edges="-238059328#1 -238059328#0 238059324#0 238059324#1"/>
    </vehicle>
    <vehicle id="15" depart="45.00">
        <route edges="383432312#0 383432312#1 -383432312#1 -383432312#0"/>
    </vehicle>
    <vehicle id="16" depart="48.00">
        <route edges="-238059324#1 -238059324#0 -383432312#1 -383432312#0"/>
    </vehicle>
</routes>
