<?xml version="1.0" encoding="UTF-8"?>
<!-- generated on 2020-01-08 12:57:56.086456 by randomTrips.py UNKNOWN
  options: -n intersection.loop.net.xml -r intersection.rou.xml -o intersection.trips.xml -b 0 -e 50 -p 3 <doubleminus>fringe-factor 100
-->
<routes xmlns:xsi="http://www.w3.org/2001/XMLSchema-instance" xsi:noNamespaceSchemaLocation="http://sumo.dlr.de/xsd/routes_file.xsd">
    <trip id="0" depart="0.00" from="-238059324#1" to="238059324#0"/>
    <trip id="1" depart="3.00" from="-238059328#1" to="-383432312#0"/>
    <trip id="2" depart="6.00" from="-238059324#1" to="-309265401#0"/>
    <trip id="3" depart="9.00" from="-238059324#1" to="238059328#1"/>
    <trip id="4" depart="12.00" from="-238059324#1" to="-383432312#0"/>
    <trip id="5" depart="15.00" from="383432312#0" to="-383432312#0"/>
    <trip id="6" depart="18.00" from="-238059328#1" to="238059324#1"/>
    <trip id="7" depart="21.00" from="383432312#0" to="238059324#1"/>
    <trip id="8" depart="24.00" from="-238059328#1" to="-309265401#0"/>
    <trip id="9" depart="27.00" from="309265401#0" to="238059324#1"/>
    <trip id="10" depart="30.00" from="-238059324#1" to="-309265401#0"/>
    <trip id="11" depart="33.00" from="383432312#0" to="238059324#1"/>
    <trip id="12" depart="36.00" from="-238059328#1" to="-309265401#0"/>
    <trip id="13" depart="39.00" from="309265401#0" to="238059328#1"/>
    <trip id="14" depart="42.00" from="-238059328#1" to="238059324#1"/>
    <trip id="15" depart="45.00" from="383432312#0" to="-383432312#0"/>
    <trip id="16" depart="48.00" from="-238059324#1" to="-383432312#0"/>
</routes>
