<?xml version="1.0" encoding="UTF-8"?>

<!-- generated on Tue Jan  7 19:48:51 2020 by Eclipse SUMO polyconvert Version 1.4.0
<configuration xmlns:xsi="http://www.w3.org/2001/XMLSchema-instance" xsi:noNamespaceSchemaLocation="http://sumo.dlr.de/xsd/polyconvertConfiguration.xsd">

    <input>
        <net-file value="intersection.net.xml"/>
        <osm-files value="intersection.osm"/>
        <type-file value="../typemap.xml"/>
    </input>

    <output>
        <output-file value="intersection.poly.xml"/>
    </output>

    <processing>
        <poi-layer-offset value="5"/>
    </processing>

</configuration>
-->

<additional xmlns:xsi="http://www.w3.org/2001/XMLSchema-instance" xsi:noNamespaceSchemaLocation="http://sumo.dlr.de/xsd/additional_file.xsd">
    <location netOffset="-487306.20,-4286077.94" convBoundary="-175.56,0.00,476.36,499.98" origBoundary="-9.148047,38.723270,-9.140555,38.727775" projParameter="+proj=utm +zone=29 +ellps=WGS84 +datum=WGS84 +units=m +no_defs"/>

    <poly id="317371730" type="building" color="255,230,230" fill="1" layer="-1.00" shape="54.574756,302.385277 61.079537,309.621046 52.271549,319.000576 44.871867,312.032555 54.574756,302.385277"/>
    <poly id="317371731" type="building" color="255,230,230" fill="1" layer="-1.00" shape="52.271549,319.000576 57.843549,324.551138 59.843712,325.113891 61.816987,325.166243 64.527519,324.207633 75.653752,307.667121 69.101227,303.205571 63.382760,309.439846 61.912482,308.654319 61.079537,309.621046 52.271549,319.000576"/>
    <poly id="430399306" type="building" color="255,230,230" fill="1" layer="-1.00" shape="40.901102,356.858121 33.771356,366.567904 26.931600,361.851623 27.790101,360.563048 24.988000,358.592308 24.302941,359.625385 16.323211,354.123067 22.870961,344.669417 30.763242,349.838982 29.826313,351.005617 33.211355,353.319427 34.104646,352.041895 40.901102,356.858121"/>
    <poly id="430399320" type="building" color="255,230,230" fill="1" layer="-1.00" shape="31.109614,327.145839 41.025450,336.650974 35.325402,343.506652 29.369802,337.246532 27.626329,339.579596 23.779820,336.789369 31.109614,327.145839"/>
    <poly id="430399324" type="building" color="255,230,230" fill="1" layer="-1.00" shape="41.025450,336.650974 47.215366,342.677701 47.731252,344.585501 47.587464,347.093566 40.901102,356.858121 34.104646,352.041895 32.973395,351.266931 36.511543,346.001506 34.909488,344.339560 35.325402,343.506652 41.025450,336.650974"/>
    <poly id="547782592" type="building" color="255,230,230" fill="1" layer="-1.00" shape="63.745752,379.347988 64.899200,377.681665 78.354828,388.501731 85.355014,379.291541 68.456552,362.595713 65.890424,361.423541 63.682410,361.338270 61.276424,362.485040 54.155861,372.516592 63.745752,379.347988"/>
    <poly id="547782691" type="building" color="255,230,230" fill="1" layer="-1.00" shape="91.909246,318.982120 75.553201,342.943440 115.416808,381.452213 119.373459,376.962927 121.218105,378.136256 132.377958,360.841198 119.280027,350.830530 111.986304,361.350555 93.242834,343.248320 104.109011,327.141027 101.533710,325.669250 91.909246,318.982120"/>
    <poi id="3762547875" type="amenity" color="237,199,199" layer="4.00" x="63.74" y="362.45"/>
    <poi id="7058442906" type="amenity" color="237,199,199" layer="4.00" x="73.26" y="364.08"/>
</additional>
