<?xml version="1.0" encoding="UTF-8"?>

<!-- generated on Wed Mar 11 16:34:59 2020 by Eclipse SUMO duarouter Version 1.1.0
<configuration xmlns:xsi="http://www.w3.org/2001/XMLSchema-instance" xsi:noNamespaceSchemaLocation="http://sumo.dlr.de/xsd/duarouterConfiguration.xsd">

    <input>
        <net-file value="data/networks/single/single.net.xml"/>
        <route-files value="data/networks/single.trips.xml"/>
    </input>

    <output>
        <output-file value="data/networks/single.rou.xml"/>
        <alternatives-output value="data/networks/single.rou.alt.xml"/>
    </output>

    <time>
        <begin value="0"/>
        <end value="3600"/>
    </time>

    <report>
        <no-warnings value="true"/>
        <ignore-errors value="true"/>
        <no-step-log value="true"/>
    </report>

</configuration>
-->

<routes xmlns:xsi="http://www.w3.org/2001/XMLSchema-instance" xsi:noNamespaceSchemaLocation="http://sumo.dlr.de/xsd/routes_file.xsd">
    <vehicle id="0" depart="0.00">
        <route edges="gneE7"/>
    </vehicle>
    <vehicle id="1" depart="1.00">
        <route edges="gneE13 gneE12 gneE10 -gneE11"/>
    </vehicle>
    <vehicle id="2" depart="2.00">
        <route edges="-gneE9 -gneE8 -gneE7 -gneE6"/>
    </vehicle>
    <vehicle id="3" depart="3.00">
        <route edges="-gneE9 -gneE8 -gneE7 -gneE6"/>
    </vehicle>
    <vehicle id="4" depart="4.00">
        <route edges="-gneE8 gneE10 -gneE11"/>
    </vehicle>
    <vehicle id="6" depart="6.00">
        <route edges="gneE13 gneE12 -gneE7 -gneE6"/>
    </vehicle>
    <vehicle id="7" depart="7.00">
        <route edges="gneE6 gneE7 gneE8 gneE9"/>
    </vehicle>
    <vehicle id="8" depart="8.00">
        <route edges="-gneE8 -gneE7"/>
    </vehicle>
    <vehicle id="9" depart="9.00">
        <route edges="gneE13 gneE12 -gneE7 -gneE6"/>
    </vehicle>
    <vehicle id="12" depart="12.00">
        <route edges="-gneE8 -gneE7"/>
    </vehicle>
    <vehicle id="15" depart="15.00">
        <route edges="gneE7"/>
    </vehicle>
    <vehicle id="16" depart="16.00">
        <route edges="gneE11 -gneE10 gneE8 gneE9"/>
    </vehicle>
    <vehicle id="18" depart="18.00">
        <route edges="-gneE8 -gneE7 -gneE6"/>
    </vehicle>
    <vehicle id="22" depart="22.00">
        <route edges="gneE7 -gneE12"/>
    </vehicle>
    <vehicle id="23" depart="23.00">
        <route edges="gneE8 gneE9"/>
    </vehicle>
    <vehicle id="29" depart="29.00">
        <route edges="-gneE8 gneE10 -gneE11"/>
    </vehicle>
    <vehicle id="31" depart="31.00">
        <route edges="gneE12 gneE10 -gneE11"/>
    </vehicle>
    <vehicle id="32" depart="32.00">
        <route edges="-gneE8 -gneE12 -gneE13"/>
    </vehicle>
    <vehicle id="38" depart="38.00">
        <route edges="gneE12"/>
    </vehicle>
    <vehicle id="45" depart="45.00">
        <route edges="gneE7 gneE10"/>
    </vehicle>
    <vehicle id="46" depart="46.00">
        <route edges="gneE8"/>
    </vehicle>
    <vehicle id="47" depart="47.00">
        <route edges="-gneE8"/>
    </vehicle>
    <vehicle id="49" depart="49.00">
        <route edges="gneE6 gneE7 gneE10"/>
    </vehicle>
    <vehicle id="52" depart="52.00">
        <route edges="-gneE9 -gneE8 -gneE7"/>
    </vehicle>
    <vehicle id="53" depart="53.00">
        <route edges="gneE13 gneE12"/>
    </vehicle>
    <vehicle id="54" depart="54.00">
        <route edges="-gneE7 -gneE6"/>
    </vehicle>
    <vehicle id="56" depart="56.00">
        <route edges="gneE13 gneE12 gneE10"/>
    </vehicle>
    <vehicle id="57" depart="57.00">
        <route edges="gneE12 gneE8 gneE9"/>
    </vehicle>
    <vehicle id="59" depart="59.00">
        <route edges="-gneE8 gneE10"/>
    </vehicle>
    <vehicle id="62" depart="62.00">
        <route edges="-gneE10 -gneE12 -gneE13"/>
    </vehicle>
    <vehicle id="64" depart="64.00">
        <route edges="gneE6 gneE7 -gneE12 -gneE13"/>
    </vehicle>
    <vehicle id="66" depart="66.00">
        <route edges="gneE13 gneE12"/>
    </vehicle>
    <vehicle id="71" depart="71.00">
        <route edges="gneE7 gneE10"/>
    </vehicle>
    <vehicle id="72" depart="72.00">
        <route edges="gneE12 -gneE7 -gneE6"/>
    </vehicle>
    <vehicle id="73" depart="73.00">
        <route edges="gneE6 gneE7 -gneE12"/>
    </vehicle>
    <vehicle id="74" depart="74.00">
        <route edges="gneE12 gneE8 gneE9"/>
    </vehicle>
    <vehicle id="75" depart="75.00">
        <route edges="gneE13 gneE12 gneE8"/>
    </vehicle>
    <vehicle id="76" depart="76.00">
        <route edges="gneE7 gneE10"/>
    </vehicle>
    <vehicle id="78" depart="78.00">
        <route edges="gneE7 gneE8"/>
    </vehicle>
    <vehicle id="79" depart="79.00">
        <route edges="gneE8 gneE9"/>
    </vehicle>
    <vehicle id="80" depart="80.00">
        <route edges="gneE6 gneE7 -gneE12 -gneE13"/>
    </vehicle>
    <vehicle id="81" depart="81.00">
        <route edges="gneE6 gneE7 gneE8 gneE9"/>
    </vehicle>
    <vehicle id="87" depart="87.00">
        <route edges="-gneE10 -gneE12 -gneE13"/>
    </vehicle>
    <vehicle id="89" depart="89.00">
        <route edges="gneE6 gneE7 gneE8 gneE9"/>
    </vehicle>
    <vehicle id="93" depart="93.00">
        <route edges="-gneE9 -gneE8 -gneE7"/>
    </vehicle>
    <vehicle id="94" depart="94.00">
        <route edges="gneE13 gneE12 -gneE7"/>
    </vehicle>
    <vehicle id="95" depart="95.00">
        <route edges="gneE11 -gneE10 gneE8"/>
    </vehicle>
    <vehicle id="100" depart="100.00">
        <route edges="gneE8"/>
    </vehicle>
    <vehicle id="110" depart="110.00">
        <route edges="-gneE9 -gneE8 -gneE12"/>
    </vehicle>
    <vehicle id="112" depart="112.00">
        <route edges="gneE6 gneE7 gneE8 gneE9"/>
    </vehicle>
    <vehicle id="116" depart="116.00">
        <route edges="gneE10"/>
    </vehicle>
    <vehicle id="121" depart="121.00">
        <route edges="-gneE7 -gneE6"/>
    </vehicle>
    <vehicle id="123" depart="123.00">
        <route edges="-gneE10 -gneE7"/>
    </vehicle>
    <vehicle id="125" depart="125.00">
        <route edges="-gneE8 gneE10"/>
    </vehicle>
    <vehicle id="126" depart="126.00">
        <route edges="gneE13 gneE12 gneE8 gneE9"/>
    </vehicle>
    <vehicle id="127" depart="127.00">
        <route edges="gneE11 -gneE10 gneE8"/>
    </vehicle>
    <vehicle id="132" depart="132.00">
        <route edges="-gneE10 -gneE12 -gneE13"/>
    </vehicle>
    <vehicle id="133" depart="133.00">
        <route edges="gneE13 gneE12 -gneE7"/>
    </vehicle>
    <vehicle id="134" depart="134.00">
        <route edges="-gneE9 -gneE8"/>
    </vehicle>
    <vehicle id="138" depart="138.00">
        <route edges="gneE13 gneE12 gneE8 gneE9"/>
    </vehicle>
    <vehicle id="146" depart="146.00">
        <route edges="gneE6 gneE7 gneE10 -gneE11"/>
    </vehicle>
    <vehicle id="147" depart="147.00">
        <route edges="-gneE9 -gneE8 -gneE12"/>
    </vehicle>
    <vehicle id="148" depart="148.00">
        <route edges="-gneE10"/>
    </vehicle>
    <vehicle id="150" depart="150.00">
        <route edges="-gneE12"/>
    </vehicle>
    <vehicle id="153" depart="153.00">
        <route edges="-gneE10 gneE8"/>
    </vehicle>
    <vehicle id="155" depart="155.00">
        <route edges="-gneE10"/>
    </vehicle>
    <vehicle id="156" depart="156.00">
        <route edges="-gneE10 gneE8"/>
    </vehicle>
    <vehicle id="157" depart="157.00">
        <route edges="gneE12"/>
    </vehicle>
    <vehicle id="160" depart="160.00">
        <route edges="-gneE9 -gneE8 gneE10 -gneE11"/>
    </vehicle>
    <vehicle id="165" depart="165.00">
        <route edges="-gneE9 -gneE8 gneE10"/>
    </vehicle>
    <vehicle id="166" depart="166.00">
        <route edges="gneE12"/>
    </vehicle>
    <vehicle id="167" depart="167.00">
        <route edges="gneE8 gneE9"/>
    </vehicle>
    <vehicle id="169" depart="169.00">
        <route edges="gneE13 gneE12 gneE8"/>
    </vehicle>
    <vehicle id="175" depart="175.00">
        <route edges="gneE6 gneE7 gneE10"/>
    </vehicle>
    <vehicle id="178" depart="178.00">
        <route edges="gneE8 gneE9"/>
    </vehicle>
    <vehicle id="180" depart="180.00">
        <route edges="-gneE8 -gneE12 -gneE13"/>
    </vehicle>
    <vehicle id="181" depart="181.00">
        <route edges="gneE12 gneE8 gneE9"/>
    </vehicle>
    <vehicle id="183" depart="183.00">
        <route edges="gneE13 gneE12 gneE10"/>
    </vehicle>
    <vehicle id="185" depart="185.00">
        <route edges="-gneE9 -gneE8 -gneE12"/>
    </vehicle>
    <vehicle id="186" depart="186.00">
        <route edges="-gneE10 -gneE7"/>
    </vehicle>
    <vehicle id="188" depart="188.00">
        <route edges="-gneE12 -gneE13"/>
    </vehicle>
    <vehicle id="189" depart="189.00">
        <route edges="-gneE7 -gneE6"/>
    </vehicle>
    <vehicle id="195" depart="195.00">
        <route edges="gneE7 gneE8"/>
    </vehicle>
    <vehicle id="196" depart="196.00">
        <route edges="gneE6 gneE7 gneE8"/>
    </vehicle>
    <vehicle id="197" depart="197.00">
        <route edges="-gneE12 -gneE13"/>
    </vehicle>
    <vehicle id="198" depart="198.00">
        <route edges="-gneE9 -gneE8 -gneE12 -gneE13"/>
    </vehicle>
    <vehicle id="199" depart="199.00">
        <route edges="-gneE10 -gneE12"/>
    </vehicle>
    <vehicle id="202" depart="202.00">
        <route edges="-gneE9 -gneE8 -gneE7"/>
    </vehicle>
    <vehicle id="207" depart="207.00">
        <route edges="gneE6 gneE7 -gneE12 -gneE13"/>
    </vehicle>
    <vehicle id="208" depart="208.00">
        <route edges="-gneE9 -gneE8"/>
    </vehicle>
    <vehicle id="210" depart="210.00">
        <route edges="-gneE9 -gneE8 gneE10 -gneE11"/>
    </vehicle>
    <vehicle id="211" depart="211.00">
        <route edges="gneE6 gneE7 gneE10"/>
    </vehicle>
    <vehicle id="213" depart="213.00">
        <route edges="-gneE8 gneE10"/>
    </vehicle>
    <vehicle id="214" depart="214.00">
        <route edges="gneE7 gneE10 -gneE11"/>
    </vehicle>
    <vehicle id="215" depart="215.00">
        <route edges="gneE11 -gneE10 -gneE7 -gneE6"/>
    </vehicle>
    <vehicle id="216" depart="216.00">
        <route edges="gneE11 -gneE10 -gneE12"/>
    </vehicle>
    <vehicle id="217" depart="217.00">
        <route edges="gneE11 -gneE10 gneE8 gneE9"/>
    </vehicle>
    <vehicle id="218" depart="218.00">
        <route edges="-gneE9 -gneE8 -gneE7"/>
    </vehicle>
    <vehicle id="219" depart="219.00">
        <route edges="gneE11 -gneE10 -gneE7 -gneE6"/>
    </vehicle>
    <vehicle id="223" depart="223.00">
        <route edges="gneE12"/>
    </vehicle>
    <vehicle id="224" depart="224.00">
        <route edges="gneE12 gneE10 -gneE11"/>
    </vehicle>
    <vehicle id="225" depart="225.00">
        <route edges="-gneE10 -gneE12"/>
    </vehicle>
    <vehicle id="227" depart="227.00">
        <route edges="gneE12 gneE10 -gneE11"/>
    </vehicle>
    <vehicle id="228" depart="228.00">
        <route edges="-gneE12 -gneE13"/>
    </vehicle>
    <vehicle id="230" depart="230.00">
        <route edges="gneE12 gneE10 -gneE11"/>
    </vehicle>
    <vehicle id="232" depart="232.00">
        <route edges="-gneE8"/>
    </vehicle>
    <vehicle id="234" depart="234.00">
        <route edges="-gneE8 -gneE7 -gneE6"/>
    </vehicle>
    <vehicle id="238" depart="238.00">
        <route edges="gneE13 gneE12 gneE10 -gneE11"/>
    </vehicle>
    <vehicle id="239" depart="239.00">
        <route edges="gneE7 gneE10"/>
    </vehicle>
    <vehicle id="241" depart="241.00">
        <route edges="gneE6 gneE7 -gneE12"/>
    </vehicle>
    <vehicle id="242" depart="242.00">
        <route edges="gneE13 gneE12 gneE8"/>
    </vehicle>
    <vehicle id="243" depart="243.00">
        <route edges="gneE12 gneE10 -gneE11"/>
    </vehicle>
    <vehicle id="244" depart="244.00">
        <route edges="gneE13 gneE12 gneE10 -gneE11"/>
    </vehicle>
    <vehicle id="246" depart="246.00">
        <route edges="-gneE8 -gneE12"/>
    </vehicle>
    <vehicle id="248" depart="248.00">
        <route edges="gneE11 -gneE10 -gneE12 -gneE13"/>
    </vehicle>
    <vehicle id="249" depart="249.00">
        <route edges="gneE6 gneE7 -gneE12 -gneE13"/>
    </vehicle>
    <vehicle id="250" depart="250.00">
        <route edges="gneE12 gneE10 -gneE11"/>
    </vehicle>
    <vehicle id="252" depart="252.00">
        <route edges="gneE6 gneE7 gneE10 -gneE11"/>
    </vehicle>
    <vehicle id="254" depart="254.00">
        <route edges="-gneE8 -gneE12"/>
    </vehicle>
    <vehicle id="255" depart="255.00">
        <route edges="-gneE10 gneE8"/>
    </vehicle>
    <vehicle id="256" depart="256.00">
        <route edges="gneE7"/>
    </vehicle>
    <vehicle id="257" depart="257.00">
        <route edges="-gneE9 -gneE8 -gneE7"/>
    </vehicle>
    <vehicle id="258" depart="258.00">
        <route edges="gneE13 gneE12 gneE10 -gneE11"/>
    </vehicle>
    <vehicle id="259" depart="259.00">
        <route edges="-gneE10 -gneE7 -gneE6"/>
    </vehicle>
    <vehicle id="265" depart="265.00">
        <route edges="gneE6 gneE7 gneE8 gneE9"/>
    </vehicle>
    <vehicle id="269" depart="269.00">
        <route edges="gneE7 gneE10 -gneE11"/>
    </vehicle>
    <vehicle id="272" depart="272.00">
        <route edges="gneE7 gneE10 -gneE11"/>
    </vehicle>
    <vehicle id="274" depart="274.00">
        <route edges="gneE13 gneE12 -gneE7"/>
    </vehicle>
    <vehicle id="275" depart="275.00">
        <route edges="gneE13 gneE12 -gneE7 -gneE6"/>
    </vehicle>
    <vehicle id="277" depart="277.00">
        <route edges="gneE11 -gneE10 -gneE12"/>
    </vehicle>
    <vehicle id="286" depart="286.00">
        <route edges="-gneE10 -gneE12"/>
    </vehicle>
    <vehicle id="287" depart="287.00">
        <route edges="gneE13 gneE12 gneE8 gneE9"/>
    </vehicle>
    <vehicle id="288" depart="288.00">
        <route edges="-gneE9 -gneE8 -gneE7"/>
    </vehicle>
    <vehicle id="289" depart="289.00">
        <route edges="-gneE9 -gneE8 -gneE7 -gneE6"/>
    </vehicle>
    <vehicle id="292" depart="292.00">
        <route edges="-gneE8 gneE10 -gneE11"/>
    </vehicle>
    <vehicle id="293" depart="293.00">
        <route edges="gneE13 gneE12 gneE10 -gneE11"/>
    </vehicle>
    <vehicle id="294" depart="294.00">
        <route edges="gneE10"/>
    </vehicle>
    <vehicle id="296" depart="296.00">
        <route edges="gneE13 gneE12 gneE8"/>
    </vehicle>
    <vehicle id="301" depart="301.00">
        <route edges="gneE13 gneE12 -gneE7 -gneE6"/>
    </vehicle>
    <vehicle id="303" depart="303.00">
        <route edges="-gneE10 gneE8"/>
    </vehicle>
    <vehicle id="304" depart="304.00">
        <route edges="gneE10"/>
    </vehicle>
    <vehicle id="306" depart="306.00">
        <route edges="gneE6 gneE7"/>
    </vehicle>
    <vehicle id="308" depart="308.00">
        <route edges="-gneE9 -gneE8 gneE10"/>
    </vehicle>
    <vehicle id="312" depart="312.00">
        <route edges="-gneE8 -gneE12"/>
    </vehicle>
    <vehicle id="313" depart="313.00">
        <route edges="gneE12"/>
    </vehicle>
    <vehicle id="315" depart="315.00">
        <route edges="-gneE8 -gneE7"/>
    </vehicle>
    <vehicle id="318" depart="318.00">
        <route edges="-gneE9 -gneE8 gneE10 -gneE11"/>
    </vehicle>
    <vehicle id="322" depart="322.00">
        <route edges="gneE10"/>
    </vehicle>
    <vehicle id="324" depart="324.00">
        <route edges="gneE11 -gneE10 -gneE7 -gneE6"/>
    </vehicle>
    <vehicle id="326" depart="326.00">
        <route edges="-gneE9 -gneE8 -gneE12"/>
    </vehicle>
    <vehicle id="327" depart="327.00">
        <route edges="gneE13 gneE12 -gneE7"/>
    </vehicle>
    <vehicle id="332" depart="332.00">
        <route edges="-gneE9 -gneE8"/>
    </vehicle>
    <vehicle id="333" depart="333.00">
        <route edges="gneE13 gneE12 gneE8 gneE9"/>
    </vehicle>
    <vehicle id="334" depart="334.00">
        <route edges="gneE12 gneE10"/>
    </vehicle>
    <vehicle id="338" depart="338.00">
        <route edges="gneE12 gneE8"/>
    </vehicle>
    <vehicle id="340" depart="340.00">
        <route edges="gneE12"/>
    </vehicle>
    <vehicle id="348" depart="348.00">
        <route edges="gneE12 gneE10 -gneE11"/>
    </vehicle>
    <vehicle id="355" depart="355.00">
        <route edges="gneE12 gneE8"/>
    </vehicle>
    <vehicle id="357" depart="357.00">
        <route edges="-gneE9 -gneE8 -gneE12 -gneE13"/>
    </vehicle>
    <vehicle id="358" depart="358.00">
        <route edges="gneE13 gneE12 gneE8 gneE9"/>
    </vehicle>
    <vehicle id="359" depart="359.00">
        <route edges="gneE11 -gneE10 gneE8 gneE9"/>
    </vehicle>
    <vehicle id="360" depart="360.00">
        <route edges="-gneE9 -gneE8 -gneE12 -gneE13"/>
    </vehicle>
    <vehicle id="361" depart="361.00">
        <route edges="-gneE12 -gneE13"/>
    </vehicle>
    <vehicle id="363" depart="363.00">
        <route edges="-gneE8 -gneE12"/>
    </vehicle>
    <vehicle id="364" depart="364.00">
        <route edges="gneE12 gneE8 gneE9"/>
    </vehicle>
    <vehicle id="365" depart="365.00">
        <route edges="gneE12 gneE10 -gneE11"/>
    </vehicle>
    <vehicle id="366" depart="366.00">
        <route edges="gneE12 gneE10"/>
    </vehicle>
    <vehicle id="367" depart="367.00">
        <route edges="gneE12"/>
    </vehicle>
    <vehicle id="369" depart="369.00">
        <route edges="-gneE9 -gneE8 -gneE12"/>
    </vehicle>
    <vehicle id="373" depart="373.00">
        <route edges="gneE12"/>
    </vehicle>
    <vehicle id="378" depart="378.00">
        <route edges="-gneE9 -gneE8"/>
    </vehicle>
    <vehicle id="379" depart="379.00">
        <route edges="gneE13 gneE12 gneE10"/>
    </vehicle>
    <vehicle id="382" depart="382.00">
        <route edges="-gneE8 -gneE7 -gneE6"/>
    </vehicle>
    <vehicle id="383" depart="383.00">
        <route edges="gneE7 gneE10 -gneE11"/>
    </vehicle>
    <vehicle id="386" depart="386.00">
        <route edges="gneE11 -gneE10"/>
    </vehicle>
    <vehicle id="392" depart="392.00">
        <route edges="-gneE10 -gneE7 -gneE6"/>
    </vehicle>
    <vehicle id="396" depart="396.00">
        <route edges="gneE7 gneE8"/>
    </vehicle>
    <vehicle id="400" depart="400.00">
        <route edges="-gneE8"/>
    </vehicle>
    <vehicle id="402" depart="402.00">
        <route edges="-gneE12"/>
    </vehicle>
    <vehicle id="404" depart="404.00">
        <route edges="gneE10"/>
    </vehicle>
    <vehicle id="411" depart="411.00">
        <route edges="gneE6 gneE7 -gneE12"/>
    </vehicle>
    <vehicle id="412" depart="412.00">
        <route edges="-gneE8 gneE10 -gneE11"/>
    </vehicle>
    <vehicle id="416" depart="416.00">
        <route edges="-gneE8 -gneE12"/>
    </vehicle>
    <vehicle id="420" depart="420.00">
        <route edges="gneE12 gneE10"/>
    </vehicle>
    <vehicle id="421" depart="421.00">
        <route edges="gneE13 gneE12 gneE10 -gneE11"/>
    </vehicle>
    <vehicle id="422" depart="422.00">
        <route edges="gneE7 gneE8"/>
    </vehicle>
    <vehicle id="425" depart="425.00">
        <route edges="gneE12"/>
    </vehicle>
    <vehicle id="427" depart="427.00">
        <route edges="gneE6 gneE7 gneE8"/>
    </vehicle>
    <vehicle id="429" depart="429.00">
        <route edges="-gneE8 -gneE12"/>
    </vehicle>
    <vehicle id="430" depart="430.00">
        <route edges="gneE13 gneE12 gneE10 -gneE11"/>
    </vehicle>
    <vehicle id="431" depart="431.00">
        <route edges="-gneE8"/>
    </vehicle>
    <vehicle id="439" depart="439.00">
        <route edges="-gneE8 -gneE12 -gneE13"/>
    </vehicle>
    <vehicle id="440" depart="440.00">
        <route edges="-gneE9 -gneE8 -gneE7"/>
    </vehicle>
    <vehicle id="441" depart="441.00">
        <route edges="gneE11 -gneE10 gneE8"/>
    </vehicle>
    <vehicle id="443" depart="443.00">
        <route edges="-gneE7 -gneE6"/>
    </vehicle>
    <vehicle id="446" depart="446.00">
        <route edges="-gneE8 -gneE12"/>
    </vehicle>
    <vehicle id="449" depart="449.00">
        <route edges="-gneE9 -gneE8 -gneE12"/>
    </vehicle>
    <vehicle id="452" depart="452.00">
        <route edges="gneE11 -gneE10 gneE8"/>
    </vehicle>
    <vehicle id="453" depart="453.00">
        <route edges="gneE8 gneE9"/>
    </vehicle>
    <vehicle id="454" depart="454.00">
        <route edges="gneE12 gneE10"/>
    </vehicle>
    <vehicle id="458" depart="458.00">
        <route edges="gneE11 -gneE10 gneE8"/>
    </vehicle>
    <vehicle id="459" depart="459.00">
        <route edges="gneE11 -gneE10 -gneE7 -gneE6"/>
    </vehicle>
    <vehicle id="460" depart="460.00">
        <route edges="gneE6 gneE7 gneE10"/>
    </vehicle>
    <vehicle id="461" depart="461.00">
        <route edges="gneE12 -gneE7 -gneE6"/>
    </vehicle>
    <vehicle id="463" depart="463.00">
        <route edges="gneE13 gneE12 gneE10"/>
    </vehicle>
    <vehicle id="465" depart="465.00">
        <route edges="gneE12 -gneE7"/>
    </vehicle>
    <vehicle id="466" depart="466.00">
        <route edges="gneE13 gneE12 gneE8"/>
    </vehicle>
    <vehicle id="467" depart="467.00">
        <route edges="gneE8 gneE9"/>
    </vehicle>
    <vehicle id="468" depart="468.00">
        <route edges="-gneE9 -gneE8"/>
    </vehicle>
    <vehicle id="470" depart="470.00">
        <route edges="gneE6 gneE7 gneE8 gneE9"/>
    </vehicle>
    <vehicle id="471" depart="471.00">
        <route edges="-gneE8 -gneE12"/>
    </vehicle>
    <vehicle id="472" depart="472.00">
        <route edges="-gneE10 -gneE12"/>
    </vehicle>
    <vehicle id="473" depart="473.00">
        <route edges="gneE12 -gneE7"/>
    </vehicle>
    <vehicle id="478" depart="478.00">
        <route edges="gneE7 gneE8 gneE9"/>
    </vehicle>
    <vehicle id="479" depart="479.00">
        <route edges="gneE12 gneE10 -gneE11"/>
    </vehicle>
    <vehicle id="480" depart="480.00">
        <route edges="gneE7 -gneE12"/>
    </vehicle>
    <vehicle id="482" depart="482.00">
        <route edges="gneE12 gneE8"/>
    </vehicle>
    <vehicle id="483" depart="483.00">
        <route edges="gneE12 gneE8"/>
    </vehicle>
    <vehicle id="485" depart="485.00">
        <route edges="-gneE9 -gneE8 -gneE12"/>
    </vehicle>
    <vehicle id="487" depart="487.00">
        <route edges="gneE7"/>
    </vehicle>
    <vehicle id="495" depart="495.00">
        <route edges="gneE12 gneE10"/>
    </vehicle>
    <vehicle id="499" depart="499.00">
        <route edges="gneE11 -gneE10 -gneE7 -gneE6"/>
    </vehicle>
    <vehicle id="501" depart="501.00">
        <route edges="-gneE7 -gneE6"/>
    </vehicle>
    <vehicle id="503" depart="503.00">
        <route edges="-gneE8 -gneE7"/>
    </vehicle>
    <vehicle id="505" depart="505.00">
        <route edges="-gneE10 -gneE7"/>
    </vehicle>
    <vehicle id="509" depart="509.00">
        <route edges="gneE7 gneE8"/>
    </vehicle>
    <vehicle id="511" depart="511.00">
        <route edges="gneE8"/>
    </vehicle>
    <vehicle id="517" depart="517.00">
        <route edges="gneE11 -gneE10 -gneE12 -gneE13"/>
    </vehicle>
    <vehicle id="522" depart="522.00">
        <route edges="-gneE7"/>
    </vehicle>
    <vehicle id="523" depart="523.00">
        <route edges="gneE11 -gneE10"/>
    </vehicle>
    <vehicle id="525" depart="525.00">
        <route edges="gneE7 gneE10 -gneE11"/>
    </vehicle>
    <vehicle id="527" depart="527.00">
        <route edges="gneE11 -gneE10"/>
    </vehicle>
    <vehicle id="532" depart="532.00">
        <route edges="gneE12 gneE8 gneE9"/>
    </vehicle>
    <vehicle id="535" depart="535.00">
        <route edges="gneE8 gneE9"/>
    </vehicle>
    <vehicle id="536" depart="536.00">
        <route edges="gneE6 gneE7 gneE10"/>
    </vehicle>
    <vehicle id="537" depart="537.00">
        <route edges="-gneE9 -gneE8"/>
    </vehicle>
    <vehicle id="538" depart="538.00">
        <route edges="-gneE9 -gneE8 -gneE7 -gneE6"/>
    </vehicle>
    <vehicle id="539" depart="539.00">
        <route edges="-gneE10 -gneE12 -gneE13"/>
    </vehicle>
    <vehicle id="542" depart="542.00">
        <route edges="-gneE8"/>
    </vehicle>
    <vehicle id="544" depart="544.00">
        <route edges="gneE11 -gneE10 gneE8 gneE9"/>
    </vehicle>
    <vehicle id="545" depart="545.00">
        <route edges="gneE7 -gneE12 -gneE13"/>
    </vehicle>
    <vehicle id="546" depart="546.00">
        <route edges="gneE10 -gneE11"/>
    </vehicle>
    <vehicle id="549" depart="549.00">
        <route edges="-gneE9 -gneE8 gneE10"/>
    </vehicle>
    <vehicle id="552" depart="552.00">
        <route edges="gneE13 gneE12 gneE8"/>
    </vehicle>
    <vehicle id="561" depart="561.00">
        <route edges="-gneE7"/>
    </vehicle>
    <vehicle id="568" depart="568.00">
        <route edges="gneE13 gneE12 gneE8 gneE9"/>
    </vehicle>
    <vehicle id="569" depart="569.00">
        <route edges="gneE12 gneE8 gneE9"/>
    </vehicle>
    <vehicle id="573" depart="573.00">
        <route edges="-gneE9 -gneE8 -gneE12"/>
    </vehicle>
    <vehicle id="576" depart="576.00">
        <route edges="-gneE7"/>
    </vehicle>
    <vehicle id="577" depart="577.00">
        <route edges="gneE13 gneE12 gneE8"/>
    </vehicle>
    <vehicle id="578" depart="578.00">
        <route edges="-gneE10 gneE8 gneE9"/>
    </vehicle>
    <vehicle id="579" depart="579.00">
        <route edges="gneE7 gneE10 -gneE11"/>
    </vehicle>
    <vehicle id="585" depart="585.00">
        <route edges="gneE11 -gneE10 -gneE12"/>
    </vehicle>
    <vehicle id="590" depart="590.00">
        <route edges="-gneE9 -gneE8 -gneE12"/>
    </vehicle>
    <vehicle id="592" depart="592.00">
        <route edges="-gneE8 -gneE7"/>
    </vehicle>
    <vehicle id="597" depart="597.00">
        <route edges="gneE12 gneE8"/>
    </vehicle>
    <vehicle id="599" depart="599.00">
        <route edges="-gneE9 -gneE8 -gneE7 -gneE6"/>
    </vehicle>
    <vehicle id="603" depart="603.00">
        <route edges="gneE13 gneE12 gneE8 gneE9"/>
    </vehicle>
    <vehicle id="606" depart="606.00">
        <route edges="-gneE9 -gneE8 gneE10 -gneE11"/>
    </vehicle>
    <vehicle id="607" depart="607.00">
        <route edges="gneE11 -gneE10"/>
    </vehicle>
    <vehicle id="609" depart="609.00">
        <route edges="-gneE8 gneE10"/>
    </vehicle>
    <vehicle id="612" depart="612.00">
        <route edges="-gneE10 -gneE7 -gneE6"/>
    </vehicle>
    <vehicle id="616" depart="616.00">
        <route edges="-gneE9 -gneE8 -gneE7"/>
    </vehicle>
    <vehicle id="619" depart="619.00">
        <route edges="gneE11 -gneE10 -gneE7 -gneE6"/>
    </vehicle>
    <vehicle id="620" depart="620.00">
        <route edges="gneE12"/>
    </vehicle>
    <vehicle id="622" depart="622.00">
        <route edges="gneE12 gneE10 -gneE11"/>
    </vehicle>
    <vehicle id="627" depart="627.00">
        <route edges="-gneE8 -gneE12"/>
    </vehicle>
    <vehicle id="628" depart="628.00">
        <route edges="gneE7 -gneE12"/>
    </vehicle>
    <vehicle id="629" depart="629.00">
        <route edges="gneE12 -gneE7"/>
    </vehicle>
    <vehicle id="630" depart="630.00">
        <route edges="gneE6 gneE7 -gneE12"/>
    </vehicle>
    <vehicle id="633" depart="633.00">
        <route edges="-gneE9 -gneE8 -gneE12 -gneE13"/>
    </vehicle>
    <vehicle id="636" depart="636.00">
        <route edges="gneE12 gneE10 -gneE11"/>
    </vehicle>
    <vehicle id="637" depart="637.00">
        <route edges="gneE13 gneE12 -gneE7"/>
    </vehicle>
    <vehicle id="640" depart="640.00">
        <route edges="-gneE10 -gneE12"/>
    </vehicle>
    <vehicle id="641" depart="641.00">
        <route edges="gneE11 -gneE10 -gneE7"/>
    </vehicle>
    <vehicle id="643" depart="643.00">
        <route edges="-gneE7"/>
    </vehicle>
    <vehicle id="644" depart="644.00">
        <route edges="gneE10 -gneE11"/>
    </vehicle>
    <vehicle id="646" depart="646.00">
        <route edges="-gneE7"/>
    </vehicle>
    <vehicle id="647" depart="647.00">
        <route edges="-gneE8"/>
    </vehicle>
    <vehicle id="648" depart="648.00">
        <route edges="gneE12 gneE8"/>
    </vehicle>
    <vehicle id="650" depart="650.00">
        <route edges="-gneE9 -gneE8 -gneE7 -gneE6"/>
    </vehicle>
    <vehicle id="651" depart="651.00">
        <route edges="gneE6 gneE7 gneE8"/>
    </vehicle>
    <vehicle id="652" depart="652.00">
        <route edges="gneE8"/>
    </vehicle>
    <vehicle id="654" depart="654.00">
        <route edges="gneE8 gneE9"/>
    </vehicle>
    <vehicle id="655" depart="655.00">
        <route edges="gneE11 -gneE10 -gneE7 -gneE6"/>
    </vehicle>
    <vehicle id="659" depart="659.00">
        <route edges="-gneE9 -gneE8 -gneE12 -gneE13"/>
    </vehicle>
    <vehicle id="664" depart="664.00">
        <route edges="gneE11 -gneE10 -gneE12"/>
    </vehicle>
    <vehicle id="665" depart="665.00">
        <route edges="gneE11 -gneE10 -gneE12"/>
    </vehicle>
    <vehicle id="667" depart="667.00">
        <route edges="gneE12 -gneE7 -gneE6"/>
    </vehicle>
    <vehicle id="669" depart="669.00">
        <route edges="gneE13 gneE12 -gneE7"/>
    </vehicle>
    <vehicle id="670" depart="670.00">
        <route edges="-gneE9 -gneE8 gneE10 -gneE11"/>
    </vehicle>
    <vehicle id="671" depart="671.00">
        <route edges="gneE12"/>
    </vehicle>
    <vehicle id="674" depart="674.00">
        <route edges="-gneE8 -gneE12 -gneE13"/>
    </vehicle>
    <vehicle id="676" depart="676.00">
        <route edges="-gneE8 -gneE12 -gneE13"/>
    </vehicle>
    <vehicle id="679" depart="679.00">
        <route edges="gneE7 -gneE12"/>
    </vehicle>
    <vehicle id="680" depart="680.00">
        <route edges="gneE8"/>
    </vehicle>
    <vehicle id="682" depart="682.00">
        <route edges="gneE6 gneE7 gneE8"/>
    </vehicle>
    <vehicle id="685" depart="685.00">
        <route edges="gneE11 -gneE10 -gneE12 -gneE13"/>
    </vehicle>
    <vehicle id="686" depart="686.00">
        <route edges="gneE13 gneE12 gneE10 -gneE11"/>
    </vehicle>