<?xml version="1.0" encoding="UTF-8"?>

<!-- generated on Tue Oct  8 10:10:58 2019 by Eclipse SUMO polyconvert Version 1.2.0
<configuration xmlns:xsi="http://www.w3.org/2001/XMLSchema-instance" xsi:noNamespaceSchemaLocation="http://sumo.dlr.de/xsd/polyconvertConfiguration.xsd">

    <input>
        <net-file value="intersection.net.xml"/>
        <osm-files value="intersection.net.xml"/>
        <type-file value="typemap.xml"/>
    </input>

    <output>
        <output-file value="intersection.poly.xml"/>
    </output>

    <processing>
        <poi-layer-offset value="5"/>
    </processing>

</configuration>
-->

<additional xmlns:xsi="http://www.w3.org/2001/XMLSchema-instance" xsi:noNamespaceSchemaLocation="http://sumo.dlr.de/xsd/additional_file.xsd">
    <location netOffset="-487206.91,-4286077.94" convBoundary="0.00,0.00,402.00,444.05" origBoundary="-9.148047,38.723270,-9.140555,38.727762" projParameter="+proj=utm +zone=29 +ellps=WGS84 +datum=WGS84 +units=m +no_defs"/>

</additional>
