<?xml version="1.0" encoding="UTF-8"?>

<!-- generated on Thu Jan  9 13:44:07 2020 by Eclipse SUMO polyconvert Version 1.4.0
<configuration xmlns:xsi="http://www.w3.org/2001/XMLSchema-instance" xsi:noNamespaceSchemaLocation="http://sumo.dlr.de/xsd/polyconvertConfiguration.xsd">

    <input>
        <net-file value="grid.net.xml"/>
        <osm-files value="grid.tls.osm"/>
        <type-file value="../typemap.xml"/>
    </input>

    <output>
        <output-file value="grid.poly.xml"/>
    </output>

    <processing>
        <poi-layer-offset value="5"/>
    </processing>

</configuration>
-->

<additional xmlns:xsi="http://www.w3.org/2001/XMLSchema-instance" xsi:noNamespaceSchemaLocation="http://sumo.dlr.de/xsd/additional_file.xsd">
    <location netOffset="-487289.53,-4286399.82" convBoundary="-305.28,-177.86,484.54,216.29" origBoundary="-9.149737,38.724564,-9.140648,38.728119" projParameter="+proj=utm +zone=29 +ellps=WGS84 +datum=WGS84 +units=m +no_defs"/>

    <poly id="101292719" type="residential" color="235,235,227" fill="1" layer="-3.00" shape="202.900124,-48.811415 197.823018,-95.441792 208.843552,-101.125336 218.759199,-149.594758 283.627481,-100.394570 346.199988,-97.997490 402.220697,189.439614 245.552157,190.252706 226.819772,78.619231 154.600582,79.704043 135.072895,-38.002174 207.359574,-32.036289 202.900124,-48.811415"/>
    <poly id="238339752" type="building" color="255,230,230" fill="1" layer="-1.00" shape="177.428091,148.358141 179.356161,161.573175 187.347363,162.005944 187.611782,163.272794 191.102017,163.385205 188.064938,146.383371 177.428091,148.358141"/>
    <poly id="238339753" type="building" color="255,230,230" fill="1" layer="-1.00" shape="232.500810,121.417879 230.854850,111.819423 216.598824,114.057259 211.896029,114.791291 213.464970,123.904647 232.500810,121.417879"/>
    <poly id="238339755" type="building" color="255,230,230" fill="1" layer="-1.00" shape="174.898184,132.634265 177.428091,148.358141 188.064938,146.383371 194.265530,145.239480 193.569988,140.735756 196.116122,140.263416 194.468259,129.639018 174.898184,132.634265"/>
    <poly id="238339756" type="building" color="255,230,230" fill="1" layer="-1.00" shape="213.997664,99.026154 214.832885,103.782234 229.411965,102.068542 227.829027,91.349317 226.376175,88.522601 223.437705,87.339597 212.149579,87.212087 213.997664,99.026154"/>
    <poly id="238339757" type="building" color="255,230,230" fill="1" layer="-1.00" shape="187.534571,190.289704 204.598754,191.262407 204.340298,175.849488 198.026962,176.200701 196.885795,175.404297 196.695033,173.286570 192.831853,173.586598 191.102017,163.385205 187.611782,163.272794 187.347363,162.005944 179.356161,161.573175 181.050966,173.848977 182.914379,184.962764 184.271453,188.568588 187.534571,190.289704"/>
    <poly id="238339757#1" type="tourism" color="207,245,201" fill="1" layer="-2.00" shape="187.534571,190.289704 204.598754,191.262407 204.340298,175.849488 198.026962,176.200701 196.885795,175.404297 196.695033,173.286570 192.831853,173.586598 191.102017,163.385205 187.611782,163.272794 187.347363,162.005944 179.356161,161.573175 181.050966,173.848977 182.914379,184.962764 184.271453,188.568588 187.534571,190.289704"/>
    <poly id="238339758" type="building" color="255,230,230" fill="1" layer="-1.00" shape="171.594982,112.093573 178.537410,112.168816 186.654562,112.260065 185.736767,107.802983 187.984400,107.374192 187.535109,102.317520 192.275668,101.671016 190.326405,86.966156 170.085439,86.383441 168.641200,87.254667 167.343032,88.730152 166.708147,90.629733 169.328033,102.138555 171.594982,112.093573"/>
    <poly id="238339758#1" type="tourism" color="207,245,201" fill="1" layer="-2.00" shape="171.594982,112.093573 178.537410,112.168816 186.654562,112.260065 185.736767,107.802983 187.984400,107.374192 187.535109,102.317520 192.275668,101.671016 190.326405,86.966156 170.085439,86.383441 168.641200,87.254667 167.343032,88.730152 166.708147,90.629733 169.328033,102.138555 171.594982,112.093573"/>
    <poly id="317371731" type="building" color="255,230,230" fill="1" layer="-1.00" shape="56.799619,66.773151 64.680191,66.847042 66.503444,65.853267 67.948507,64.514008 69.208643,61.938952 65.514888,42.372978 57.700527,43.760311 58.004500,52.198715 56.402714,52.663847 56.488242,53.934830 56.799619,66.773151"/>
    <poly id="430399306" type="building" color="255,230,230" fill="1" layer="-1.00" shape="75.312685,101.722156 77.053979,113.625372 68.855468,115.031244 68.561810,113.512751 65.175922,114.061174 65.413651,115.276335 55.848729,116.916537 53.872240,105.602149 63.140708,103.785478 63.292630,105.271664 67.335841,104.561390 67.074777,103.026506 75.312685,101.722156"/>
    <poly id="430399320" type="building" color="255,230,230" fill="1" layer="-1.00" shape="47.426367,87.349129 61.188444,87.214779 61.942600,96.083782 53.289201,95.771114 53.685952,98.652376 48.978321,99.344595 47.426367,87.349129"/>
    <poly id="430399324" type="building" color="255,230,230" fill="1" layer="-1.00" shape="61.188444,87.214779 69.844912,87.197418 71.554957,88.199003 73.216426,90.089170 75.312685,101.722156 67.074777,103.026506 65.722368,103.262653 64.543888,97.036722 62.231617,96.968332 61.942600,96.083782 61.188444,87.214779"/>
    <poly id="547782564" type="building" color="255,230,230" fill="1" layer="-1.00" shape="119.238117,-0.406730 121.304055,11.084730 138.343342,8.811382 136.436654,-3.210001 119.238117,-0.406730"/>
    <poly id="547782565" type="building" color="255,230,230" fill="1" layer="-1.00" shape="122.037904,15.146011 123.767980,24.755453 140.484688,22.377973 138.985300,12.853765 122.037904,15.146011"/>
    <poly id="547782566" type="building" color="255,230,230" fill="1" layer="-1.00" shape="123.767980,24.755453 125.048715,31.862232 141.611289,29.464599 140.484688,22.377973 123.767980,24.755453"/>
    <poly id="547782567" type="building" color="255,230,230" fill="1" layer="-1.00" shape="125.048715,31.862232 127.008999,42.740926 143.397712,40.747387 141.611289,29.464599 125.048715,31.862232"/>
    <poly id="547782568" type="building" color="255,230,230" fill="1" layer="-1.00" shape="204.010993,66.678900 223.011140,66.438491 220.596667,50.757097 208.451772,50.737821 208.747516,52.690318 206.670835,55.007090 203.869048,55.060481 204.010993,66.678900"/>
    <poly id="547782569" type="building" color="255,230,230" fill="1" layer="-1.00" shape="203.869048,55.060481 203.778236,50.773521 203.771981,50.125589 195.668074,50.208181 195.687322,52.571974 195.550919,66.783731 204.010993,66.678900 203.869048,55.060481"/>
    <poly id="547782570" type="building" color="255,230,230" fill="1" layer="-1.00" shape="171.915431,34.537205 170.680967,28.303863 157.204648,30.602604 158.242660,36.748283 171.915431,34.537205"/>
    <poly id="547782571" type="building" color="255,230,230" fill="1" layer="-1.00" shape="159.232563,42.598530 160.671083,51.123448 173.115783,51.051049 171.031237,40.527809 159.232563,42.598530"/>
    <poly id="547782572" type="building" color="255,230,230" fill="1" layer="-1.00" shape="158.242660,36.748283 159.232563,42.598530 171.031237,40.527809 173.020785,40.134081 171.915431,34.537205 158.242660,36.748283"/>
    <poly id="547782573" type="building" color="255,230,230" fill="1" layer="-1.00" shape="172.532982,3.735493 170.901449,-4.491155 151.854341,-1.089921 153.196637,6.844160 172.532982,3.735493"/>
    <poly id="547782574" type="building" color="255,230,230" fill="1" layer="-1.00" shape="170.901449,-4.491155 169.239671,-12.859447 162.311912,-11.500799 150.377462,-9.826409 151.854341,-1.089921 170.901449,-4.491155"/>
    <poly id="547782575" type="building" color="255,230,230" fill="1" layer="-1.00" shape="153.196637,6.844160 155.189426,18.656520 166.367836,17.007175 165.224417,11.260746 173.697202,9.601681 172.532982,3.735493 153.196637,6.844160"/>
    <poly id="547782576" type="building" color="255,230,230" fill="1" layer="-1.00" shape="179.909793,-33.025002 167.354356,-33.311256 167.267294,-22.714061 167.224067,-16.551459 180.456004,-16.321264 180.498155,-21.423841 179.909793,-33.025002"/>
    <poly id="547782579" type="building" color="255,230,230" fill="1" layer="-1.00" shape="190.765816,-15.826195 191.915653,-9.073805 210.226948,-11.504139 209.086261,-18.296647 190.765816,-15.826195"/>
    <poly id="547782580" type="building" color="255,230,230" fill="1" layer="-1.00" shape="191.915653,-9.073805 193.156837,-1.772500 212.081196,-4.508135 210.987233,-11.611203 210.226948,-11.504139 191.915653,-9.073805"/>
    <poly id="547782581" type="building" color="255,230,230" fill="1" layer="-1.00" shape="193.156837,-1.772500 194.314494,4.987790 213.118934,2.229595 212.081196,-4.508135 193.156837,-1.772500"/>
    <poly id="547782582" type="building" color="255,230,230" fill="1" layer="-1.00" shape="194.314494,4.987790 196.239053,16.212992 214.881113,13.660753 213.118934,2.229595 194.314494,4.987790"/>
    <poly id="547782583" type="building" color="255,230,230" fill="1" layer="-1.00" shape="196.239053,16.212992 197.371336,22.873577 215.883434,20.152894 214.881113,13.660753 196.239053,16.212992"/>
    <poly id="547782584" type="building" color="255,230,230" fill="1" layer="-1.00" shape="197.371336,22.873577 199.211349,33.667770 217.573456,31.140894 215.883434,20.152894 197.371336,22.873577"/>
    <poly id="547782585" type="building" color="255,230,230" fill="1" layer="-1.00" shape="199.211349,33.667770 200.433054,40.801287 205.589532,39.933818 218.641747,38.082247 217.573456,31.140894 199.211349,33.667770"/>
    <poly id="547782588" type="building" color="255,230,230" fill="1" layer="-1.00" shape="116.572016,137.381785 119.628133,136.845328 118.183554,128.684560 100.306203,131.343854 101.657888,139.595718 116.572016,137.381785"/>
    <poly id="547782589" type="building" color="255,230,230" fill="1" layer="-1.00" shape="118.183554,128.684560 115.927774,115.915460 98.224734,118.590694 100.306203,131.343854 118.183554,128.684560"/>
    <poly id="547782590" type="building" color="255,230,230" fill="1" layer="-1.00" shape="115.927774,115.915460 114.518319,107.938264 113.335365,108.148378 96.946541,110.733943 98.224734,118.590694 115.927774,115.915460"/>
    <poly id="547782591" type="building" color="255,230,230" fill="1" layer="-1.00" shape="113.335365,108.148378 112.513098,103.504180 108.942407,104.124787 108.502497,101.644031 107.434579,101.834773 95.785681,103.649788 96.946541,110.733943 113.335365,108.148378"/>
    <poly id="547782592" type="building" color="255,230,230" fill="1" layer="-1.00" shape="107.434579,101.834773 107.085717,99.840932 124.298954,98.175553 122.816590,86.719198 99.013523,86.593229 96.357713,87.546929 94.721965,89.026455 93.811506,91.523328 95.785681,103.649788 107.434579,101.834773"/>
    <poly id="547782593" type="building" color="255,230,230" fill="1" layer="-1.00" shape="142.850127,108.980307 133.100786,110.458591 135.426168,121.866879 157.126467,118.620093 155.124986,107.267921 142.850127,108.980307"/>
    <poly id="547782594" type="building" color="255,230,230" fill="1" layer="-1.00" shape="135.426168,121.866879 128.335545,123.307454 131.591742,139.284627 160.033434,135.095472 157.126467,118.620093 135.426168,121.866879"/>
    <poly id="547782595" type="building" color="255,230,230" fill="1" layer="-1.00" shape="131.591742,139.284627 134.495717,153.535989 141.594142,152.103340 162.438081,148.730821 160.033434,135.095472 131.591742,139.284627"/>
    <poly id="547782596" type="building" color="255,230,230" fill="1" layer="-1.00" shape="141.594142,152.103340 144.450303,166.121271 151.604534,165.287973 165.074861,163.711392 162.438081,148.730821 141.594142,152.103340"/>
    <poly id="547782597" type="building" color="255,230,230" fill="1" layer="-1.00" shape="152.866098,182.208905 150.342228,182.456992 150.285639,177.217678 138.888554,177.695564 138.611408,183.090854 137.133925,183.200471 138.634852,191.430547 153.188590,191.579036 152.866098,182.208905"/>
    <poly id="547782598" type="building" color="255,230,230" fill="1" layer="-1.00" shape="166.757326,173.445332 165.074861,163.711392 151.604534,165.287973 152.818477,172.413491 157.155503,171.975788 157.742619,174.654786 166.757326,173.445332"/>
    <poly id="547782599" type="building" color="255,230,230" fill="1" layer="-1.00" shape="194.468259,129.639018 193.134732,120.948874 173.479974,123.809145 174.898184,132.634265 194.468259,129.639018"/>
    <poly id="547782600" type="building" color="255,230,230" fill="1" layer="-1.00" shape="193.134732,120.948874 194.617518,120.647203 193.347802,112.922299 186.654562,112.260065 178.537410,112.168816 171.594982,112.093573 173.479974,123.809145 193.134732,120.948874"/>
    <poly id="547782601" type="building" color="255,230,230" fill="1" layer="-1.00" shape="203.939300,99.032003 205.828718,98.845487 205.975752,100.289745 211.877092,100.311429 211.790253,99.088454 213.997664,99.026154 212.149579,87.212087 201.676759,87.094883 203.939300,99.032003"/>
    <poly id="547782602" type="building" color="255,230,230" fill="1" layer="-1.00" shape="199.881268,87.080281 190.326405,86.966156 192.275668,101.671016 192.612549,103.443012 202.773310,102.417919 199.881268,87.080281"/>
    <poly id="547782603" type="building" color="255,230,230" fill="1" layer="-1.00" shape="214.832885,103.782234 216.598824,114.057259 230.854850,111.819423 229.411965,102.068542 214.832885,103.782234"/>
    <poly id="547782604" type="building" color="255,230,230" fill="1" layer="-1.00" shape="213.464970,123.904647 214.694505,131.046031 233.664969,128.234052 232.500810,121.417879 213.464970,123.904647"/>
    <poly id="547782605" type="building" color="255,230,230" fill="1" layer="-1.00" shape="214.694505,131.046031 216.599307,142.041384 235.480634,138.818481 233.664969,128.234052 214.694505,131.046031"/>
    <poly id="547782606" type="building" color="255,230,230" fill="1" layer="-1.00" shape="258.434381,113.630999 257.853121,110.229893 255.822864,110.570070 254.794624,104.508265 244.225227,106.292142 245.813928,115.635290 258.434381,113.630999"/>
    <poly id="547782684" type="building" color="255,230,230" fill="1" layer="-1.00" shape="122.816590,86.719198 138.211838,86.805545 139.288392,103.440768 128.101647,103.354204 128.683509,97.909246 124.298954,98.175553 122.816590,86.719198"/>
    <poly id="547782685" type="building" color="255,230,230" fill="1" layer="-1.00" shape="153.188590,191.579036 167.929051,191.731335 169.054381,190.549925 169.486969,189.284772 166.757326,173.445332 157.742619,174.654786 159.249590,181.570809 155.361947,181.957153 152.866098,182.208905 153.188590,191.579036"/>
    <poly id="547782686" type="building" color="255,230,230" fill="1" layer="-1.00" shape="155.124986,107.267921 151.854860,88.734837 149.698733,86.862541 138.211838,86.805545 139.288392,103.440768 141.816129,103.344621 142.850127,108.980307 155.124986,107.267921"/>
    <poly id="547782687" type="building" color="255,230,230" fill="1" layer="-1.00" shape="116.012758,150.030446 118.730259,149.608029 116.572016,137.381785 101.657888,139.595718 103.624745,152.134230 116.012758,150.030446"/>
    <poly id="547782688" type="building" color="255,230,230" fill="1" layer="-1.00" shape="136.436654,-3.210001 134.642123,-14.562723 120.125271,-12.193449 115.114800,-11.375636 117.153435,-0.059846 119.238117,-0.406730 136.436654,-3.210001"/>
    <poly id="547782690" type="building" color="255,230,230" fill="1" layer="-1.00" shape="81.519409,18.003712 85.074354,39.107409 96.646458,37.165248 95.520317,30.498645 101.463446,29.513693 100.085693,21.334077 94.089761,22.339663 93.038734,16.082160 81.519409,18.003712"/>
    <poly id="547782691" type="building" color="255,230,230" fill="1" layer="-1.00" shape="85.074354,39.107409 90.255363,67.617700 145.790338,67.289043 145.456430,61.324986 147.598170,60.875437 143.397712,40.747387 127.008999,42.740926 129.203220,55.336836 103.094180,55.494397 99.519549,36.418947 96.646458,37.165248 85.074354,39.107409"/>
    <poly id="547782693" type="building" color="255,230,230" fill="1" layer="-1.00" shape="170.680967,28.303863 179.139730,26.642980 177.214857,16.959822 166.766535,19.014443 155.522640,20.634566 157.204648,30.602604 170.680967,28.303863"/>
    <poly id="547782694" type="building" color="255,230,230" fill="1" layer="-1.00" shape="205.589532,39.933818 207.403146,50.738319 208.451772,50.737821 220.596667,50.757097 218.641747,38.082247 205.589532,39.933818"/>
    <poly id="547782695" type="building" color="255,230,230" fill="1" layer="-1.00" shape="180.498155,-21.423841 185.276830,-21.920834 185.196248,-24.099907 189.220413,-24.261895 187.775437,-32.842800 179.909793,-33.025002 180.498155,-21.423841"/>
    <poly id="547782696" type="building" color="255,230,230" fill="1" layer="-1.00" shape="195.687322,52.571974 192.562974,52.521216 192.556174,50.799280 184.560212,50.682598 182.858833,52.428899 173.127576,52.518922 173.115783,51.051049 160.671083,51.123448 162.601461,62.576519 165.214015,65.527386 168.289836,67.120723 195.550919,66.783731 195.687322,52.571974"/>
    <poly id="547782697" type="building" color="255,230,230" fill="1" layer="-1.00" shape="162.311912,-11.500799 161.646873,-14.850911 160.109650,-14.542569 159.309006,-18.585075 162.255240,-22.860279 167.267294,-22.714061 167.354356,-33.311256 150.034385,-33.394637 147.793766,-31.835881 147.047259,-29.530941 150.377462,-9.826409 162.311912,-11.500799"/>
    <poly id="547782698" type="building" color="255,230,230" fill="1" layer="-1.00" shape="272.237348,50.339994 264.925870,50.533057 265.202986,66.939957 272.204760,67.050591 272.237348,50.339994"/>
    <poly id="547782701" type="building" color="255,230,230" fill="1" layer="-1.00" shape="230.214090,14.992052 232.717535,29.776425 247.296062,27.284716 244.833525,12.911844 230.214090,14.992052"/>
    <poly id="547782702" type="building" color="255,230,230" fill="1" layer="-1.00" shape="233.851726,36.513000 234.870521,42.552936 249.513798,40.262474 252.094480,39.849730 251.093553,33.963574 233.851726,36.513000"/>
    <poly id="547782703" type="building" color="255,230,230" fill="1" layer="-1.00" shape="232.717535,29.776425 233.851726,36.513000 251.093553,33.963574 250.272366,29.209290 247.691682,29.622036 247.296062,27.284716 232.717535,29.776425"/>
    <poly id="547782704" type="building" color="255,230,230" fill="1" layer="-1.00" shape="236.001165,49.199547 239.028632,67.129681 247.564671,66.966007 255.879779,66.800977 255.827790,52.867433 253.158893,53.055220 253.201466,54.134727 250.365758,54.252501 249.763696,50.731630 251.259185,50.479814 250.695490,47.170487 236.001165,49.199547"/>
    <poly id="547782705" type="building" color="255,230,230" fill="1" layer="-1.00" shape="234.870521,42.552936 236.001165,49.199547 250.695490,47.170487 249.513798,40.262474 234.870521,42.552936"/>
    <poly id="547782720" type="building" color="255,230,230" fill="1" layer="-1.00" shape="264.925870,50.533057 264.793279,48.856614 261.670545,48.819801 261.655147,49.815996 255.831345,49.749352 255.827790,52.867433 255.879779,66.800977 258.990121,66.849938 262.092645,66.890994 265.202986,66.939957 264.925870,50.533057"/>
    <poly id="547782730" type="building" color="255,230,230" fill="1" layer="-1.00" shape="244.225227,106.292142 254.794624,104.508265 253.482070,97.245833 257.930816,97.056857 257.684933,87.097693 251.726928,86.944640 245.817153,86.791019 241.823146,92.202635 244.225227,106.292142"/>
    <poly id="547782731" type="building" color="255,230,230" fill="1" layer="-1.00" shape="270.743020,86.782214 257.684933,87.097693 257.930816,97.056857 257.991791,99.364153 261.121728,99.284884 261.142174,100.292650 267.745837,100.124025 267.717576,99.108353 271.054437,99.028626 270.743020,86.782214"/>
    <poi id="2461874591" type="shop" color="237,199,255" layer="4.00" x="135.90" y="89.39"/>
    <poi id="3762547875" type="amenity" color="237,199,199" layer="4.00" x="95.54" y="89.78"/>
    <poi id="4382276591" type="shop" color="237,199,255" layer="4.00" x="226.56" y="69.65"/>
    <poi id="4460205695" type="amenity" color="237,199,199" layer="4.00" x="174.56" y="119.37"/>
    <poi id="4896737223" type="shop" color="237,199,255" layer="4.00" x="155.60" y="9.63"/>
    <poi id="5468970915" type="amenity" color="237,199,199" layer="4.00" x="178.54" y="168.98"/>
    <poi id="5544020764" type="tourism" color="207,245,201" layer="3.00" x="241.24" y="58.22"/>
    <poi id="7058442906" type="amenity" color="237,199,199" layer="4.00" x="103.48" y="84.30"/>
</additional>
