<?xml version="1.0" encoding="UTF-8"?>

<!-- generated on Thu Jan  9 18:14:02 2020 by Eclipse SUMO duarouter Version 1.4.0
<configuration xmlns:xsi="http://www.w3.org/2001/XMLSchema-instance" xsi:noNamespaceSchemaLocation="http://sumo.dlr.de/xsd/duarouterConfiguration.xsd">

    <input>
        <net-file value="grid.2.net.xml"/>
        <route-files value="grid.trips.xml"/>
    </input>

    <output>
        <output-file value="grid.rou.xml"/>
        <alternatives-output value="grid.rou.alt.xml"/>
    </output>

    <time>
        <begin value="0.0"/>
        <end value="280.0"/>
    </time>

    <report>
        <no-warnings value="true"/>
        <ignore-errors value="true"/>
        <no-step-log value="true"/>
    </report>

</configuration>
-->

<routes xmlns:xsi="http://www.w3.org/2001/XMLSchema-instance" xsi:noNamespaceSchemaLocation="http://sumo.dlr.de/xsd/routes_file.xsd">
    <vehicle id="0" depart="1.00">
        <route edges="23148196 309265400 309265401 238059328"/>
    </vehicle>
    <vehicle id="1" depart="3.00">
        <route edges="-238059328 -309265401 -309265400 309265396#1"/>
    </vehicle>
    <vehicle id="3" depart="11.00">
        <route edges="-238059324 -383432312"/>
    </vehicle>
    <vehicle id="6" depart="17.00">
        <route edges="23148196 309265396#1"/>
    </vehicle>
    <vehicle id="7" depart="18.00">
        <route edges="22941893 309265401 -383432312"/>
    </vehicle>
    <vehicle id="8" depart="18.00">
        <route edges="309265402 309265400 3092655395#1"/>
    </vehicle>
    <vehicle id="11" depart="32.00">
        <route edges="22941893 -309265400 -309265402"/>
    </vehicle>
    <vehicle id="12" depart="32.00">
        <route edges="-238059328 -309265401 -309265400 -309265402"/>
    </vehicle>
    <vehicle id="13" depart="35.00">
        <route edges="309265402 309265400 3092655395#1"/>
    </vehicle>
    <vehicle id="14" depart="38.00">
        <route edges="23148196 309265400 309265401 238059328"/>
    </vehicle>
    <vehicle id="15" depart="39.00">
        <route edges="-238059324 -309265401 -309265400 -309265402"/>
    </vehicle>
    <vehicle id="16" depart="41.00">
        <route edges="23148196 309265400 309265401"/>
    </vehicle>
    <vehicle id="19" depart="45.00">
        <route edges="309265402 309265400 309265401 -383432312"/>
    </vehicle>
    <vehicle id="24" depart="52.00">
        <route edges="-238059328 -309265401 -309265400 -309265402"/>
    </vehicle>
    <vehicle id="28" depart="60.00">
        <route edges="22941893 309265401 -383432312"/>
    </vehicle>
    <vehicle id="29" depart="65.00">
        <route edges="22941893 309265401 238059328"/>
    </vehicle>
    <vehicle id="30" depart="66.00">
        <route edges="23148196 309265400 309265401 238059328"/>
    </vehicle>
    <vehicle id="34" depart="86.00">
        <route edges="-238059324 -309265401 -309265400 -309265402"/>
    </vehicle>
    <vehicle id="35" depart="86.00">
        <route edges="23148196 309265400 309265401 -383432312"/>
    </vehicle>
    <vehicle id="36" depart="90.00">
        <route edges="-238059328 238059324"/>
    </vehicle>
    <vehicle id="37" depart="90.00">
        <route edges="-238059328 238059324"/>
    </vehicle>
    <vehicle id="39" depart="94.00">
        <route edges="23148196 -309265402"/>
    </vehicle>
    <vehicle id="41" depart="101.00">
        <route edges="383432312 238059328"/>
    </vehicle>
    <vehicle id="42" depart="103.00">
        <route edges="23148196 309265396#1"/>
    </vehicle>
    <vehicle id="44" depart="107.00">
        <route edges="-238059324 -383432312"/>
    </vehicle>
    <vehicle id="45" depart="108.00">
        <route edges="383432312 238059328"/>
    </vehicle>
    <vehicle id="49" depart="118.00">
        <route edges="22941893 3092655395#1"/>
    </vehicle>
    <vehicle id="50" depart="118.00">
        <route edges="22941893 309265401 -383432312"/>
    </vehicle>
    <vehicle id="51" depart="120.00">
        <route edges="-238059328 -309265401 -309265400 -309265402"/>
    </vehicle>
    <vehicle id="53" depart="123.00">
        <route edges="-238059328 -309265401 -309265400 309265396#1"/>
    </vehicle>
    <vehicle id="54" depart="124.00">
        <route edges="-238059324 -383432312"/>
    </vehicle>
    <vehicle id="56" depart="127.00">
        <route edges="383432312 238059324"/>
    </vehicle>
    <vehicle id="57" depart="129.00">
        <route edges="309265402 309265400 309265401 -383432312"/>
    </vehicle>
    <vehicle id="58" depart="130.00">
        <route edges="22941893 -309265400 309265396#1"/>
    </vehicle>
    <vehicle id="61" depart="133.00">
        <route edges="22941893 309265401 -383432312"/>
    </vehicle>
    <vehicle id="62" depart="133.00">
        <route edges="22941893 -309265400 -309265402"/>
    </vehicle>
    <vehicle id="65" depart="138.00">
        <route edges="-238059324 -309265401 -309265400 309265396#1"/>
    </vehicle>
    <vehicle id="67" depart="140.00">
        <route edges="22941893 309265401 238059328"/>
    </vehicle>
    <vehicle id="70" depart="141.00">
        <route edges="-238059328 238059324"/>
    </vehicle>
    <vehicle id="71" depart="143.00">
        <route edges="-238059328 238059324"/>
    </vehicle>
    <vehicle id="73" depart="148.00">
        <route edges="23148196 -309265402"/>
    </vehicle>
    <vehicle id="75" depart="153.00">
        <route edges="-238059328 -309265401 -309265400 309265396#1"/>
    </vehicle>
    <vehicle id="77" depart="158.00">
        <route edges="-238059324 -309265401 -309265400 309265396#1"/>
    </vehicle>
    <vehicle id="81" depart="167.00">
        <route edges="22941893 309265401 -383432312"/>
    </vehicle>
    <vehicle id="82" depart="167.00">
        <route edges="309265402 309265400 309265401 -383432312"/>
    </vehicle>
    <vehicle id="88" depart="176.00">
        <route edges="23148196 -309265402"/>
    </vehicle>
    <vehicle id="90" depart="182.00">
        <route edges="23148196 309265400 3092655395#1"/>
    </vehicle>
    <vehicle id="91" depart="182.00">
        <route edges="22941893 309265401 -383432312"/>
    </vehicle>
    <vehicle id="92" depart="183.00">
        <route edges="383432312 238059328"/>
    </vehicle>
    <vehicle id="94" depart="187.00">
        <route edges="22941893 309265401 -383432312"/>
    </vehicle>
    <vehicle id="95" depart="190.00">
        <route edges="309265402 309265400 309265401 238059328"/>
    </vehicle>
    <vehicle id="96" depart="193.00">
        <route edges="23148196 309265400 309265401 -383432312"/>
    </vehicle>
    <vehicle id="97" depart="194.00">
        <route edges="-238059328 -309265401 -309265400 309265396#1"/>
    </vehicle>
    <vehicle id="99" depart="197.00">
        <route edges="383432312 238059328"/>
    </vehicle>
    <vehicle id="100" depart="199.00">
        <route edges="309265402 309265400 309265401 238059328"/>
    </vehicle>
    <vehicle id="105" depart="212.00">
        <route edges="309265402 309265400 309265401 -383432312"/>
    </vehicle>
    <vehicle id="106" depart="214.00">
        <route edges="22941893 3092655395#1"/>
    </vehicle>
    <vehicle id="107" depart="217.00">
        <route edges="-238059328 238059324"/>
    </vehicle>
    <vehicle id="108" depart="220.00">
        <route edges="23148196 309265400 309265401 238059328"/>
    </vehicle>
    <vehicle id="109" depart="222.00">
        <route edges="-238059328 238059324"/>
    </vehicle>
    <vehicle id="111" depart="225.00">
        <route edges="22941893 309265401 -383432312"/>
    </vehicle>
    <vehicle id="112" depart="227.00">
        <route edges="309265402 309265400 3092655395#1"/>
    </vehicle>
    <vehicle id="113" depart="228.00">
        <route edges="23148196 309265396#1"/>
    </vehicle>
    <vehicle id="115" depart="234.00">
        <route edges="-238059324 -383432312"/>
    </vehicle>
    <vehicle id="117" depart="237.00">
        <route edges="22941893 3092655395#1"/>
    </vehicle>
    <vehicle id="121" depart="248.00">
        <route edges="22941893 3092655395#1"/>
    </vehicle>
    <vehicle id="122" depart="248.00">
        <route edges="-238059324 -309265401 -309265400 -309265402"/>
    </vehicle>
    <vehicle id="126" depart="264.00">
        <route edges="23148196 -309265402"/>
    </vehicle>
    <vehicle id="128" depart="266.00">
        <route edges="309265402 309265400 309265401 -383432312"/>
    </vehicle>
    <vehicle id="130" depart="270.00">
        <route edges="-238059324 -309265401 -309265400 -309265402"/>
    </vehicle>
    <vehicle id="131" depart="278.00">
        <route edges="309265402 309265400 309265401 238059328"/>
    </vehicle>
</routes>
