<?xml version="1.0" encoding="UTF-8"?>
<!-- generated on 2020-01-09 18:14:02.092441 by randomTrips.py UNKNOWN
  options: -n grid.2.net.xml -r grid.rou.xml -o grid.trips.xml -b 0 -e 280 -p 2 <doubleminus>fringe-factor 100 <doubleminus>binomial 5
-->
<routes xmlns:xsi="http://www.w3.org/2001/XMLSchema-instance" xsi:noNamespaceSchemaLocation="http://sumo.dlr.de/xsd/routes_file.xsd">
    <trip id="0" depart="1.00" from="23148196" to="238059328"/>
    <trip id="1" depart="3.00" from="-238059328" to="309265396#1"/>
    <trip id="2" depart="4.00" from="309265402" to="238059324"/>
    <trip id="3" depart="11.00" from="-238059324" to="-383432312"/>
    <trip id="4" depart="14.00" from="309265401" to="309265396#1"/>
    <trip id="5" depart="15.00" from="-238059328" to="238059328"/>
    <trip id="6" depart="17.00" from="23148196" to="309265396#1"/>
    <trip id="7" depart="18.00" from="22941893" to="-383432312"/>
    <trip id="8" depart="18.00" from="309265402" to="3092655395#1"/>
    <trip id="9" depart="25.00" from="383432312" to="-383432312"/>
    <trip id="10" depart="27.00" from="23148196" to="238059324"/>
    <trip id="11" depart="32.00" from="22941893" to="-309265402"/>
    <trip id="12" depart="32.00" from="-238059328" to="-309265402"/>
    <trip id="13" depart="35.00" from="309265402" to="3092655395#1"/>
    <trip id="14" depart="38.00" from="23148196" to="238059328"/>
    <trip id="15" depart="39.00" from="-238059324" to="-309265402"/>
    <trip id="16" depart="41.00" from="23148196" to="309265401"/>
    <trip id="17" depart="42.00" from="-238059324" to="238059328"/>
    <trip id="18" depart="45.00" from="383432312" to="-309265402"/>
    <trip id="19" depart="45.00" from="309265402" to="-383432312"/>
    <trip id="20" depart="46.00" from="-238059324" to="3092655395#1"/>
    <trip id="21" depart="47.00" from="383432312" to="-383432312"/>
    <trip id="22" depart="48.00" from="309265402" to="309265396#1"/>
    <trip id="23" depart="50.00" from="-238059324" to="238059328"/>
    <trip id="24" depart="52.00" from="-238059328" to="-309265402"/>
    <trip id="25" depart="54.00" from="309265402" to="309265396#1"/>
    <trip id="26" depart="55.00" from="383432312" to="-309265402"/>
    <trip id="27" depart="60.00" from="-238059324" to="238059324"/>
    <trip id="28" depart="60.00" from="22941893" to="-383432312"/>
    <trip id="29" depart="65.00" from="22941893" to="238059328"/>
    <trip id="30" depart="66.00" from="23148196" to="238059328"/>
    <trip id="31" depart="66.00" from="383432312" to="3092655395#1"/>
    <trip id="32" depart="68.00" from="309265402" to="-309265402"/>
    <trip id="33" depart="80.00" from="383432312" to="309265396#1"/>
    <trip id="34" depart="86.00" from="-238059324" to="-309265402"/>
    <trip id="35" depart="86.00" from="23148196" to="-383432312"/>
    <trip id="36" depart="90.00" from="-238059328" to="238059324"/>
    <trip id="37" depart="90.00" from="-238059328" to="238059324"/>
    <trip id="38" depart="93.00" from="383432312" to="309265396#1"/>
    <trip id="39" depart="94.00" from="23148196" to="-309265402"/>
    <trip id="40" depart="99.00" from="-238059328" to="-383432312"/>
    <trip id="41" depart="101.00" from="383432312" to="238059328"/>
    <trip id="42" depart="103.00" from="23148196" to="309265396#1"/>
    <trip id="43" depart="104.00" from="-238059328" to="-383432312"/>
    <trip id="44" depart="107.00" from="-238059324" to="-383432312"/>
    <trip id="45" depart="108.00" from="383432312" to="238059328"/>
    <trip id="46" depart="112.00" from="-238059324" to="238059324"/>
    <trip id="47" depart="113.00" from="-238059328" to="-383432312"/>
    <trip id="48" depart="117.00" from="-238059324" to="238059324"/>
    <trip id="49" depart="118.00" from="22941893" to="3092655395#1"/>
    <trip id="50" depart="118.00" from="22941893" to="-383432312"/>
    <trip id="51" depart="120.00" from="-238059328" to="-309265402"/>
    <trip id="52" depart="122.00" from="23148196" to="238059324"/>
    <trip id="53" depart="123.00" from="-238059328" to="309265396#1"/>
    <trip id="54" depart="124.00" from="-238059324" to="-383432312"/>
    <trip id="55" depart="125.00" from="383432312" to="3092655395#1"/>
    <trip id="56" depart="127.00" from="383432312" to="238059324"/>
    <trip id="57" depart="129.00" from="309265402" to="-383432312"/>
    <trip id="58" depart="130.00" from="22941893" to="309265396#1"/>
    <trip id="59" depart="131.00" from="-238059324" to="238059328"/>
    <trip id="60" depart="131.00" from="-238059324" to="238059328"/>
    <trip id="61" depart="133.00" from="22941893" to="-383432312"/>
    <trip id="62" depart="133.00" from="22941893" to="-309265402"/>
    <trip id="63" depart="135.00" from="-238059324" to="3092655395#1"/>
    <trip id="64" depart="137.00" from="383432312" to="3092655395#1"/>
    <trip id="65" depart="138.00" from="-238059324" to="309265396#1"/>
    <trip id="66" depart="138.00" from="383432312" to="309265396#1"/>
    <trip id="67" depart="140.00" from="22941893" to="238059328"/>
    <trip id="68" depart="141.00" from="383432312" to="-309265402"/>
    <trip id="69" depart="141.00" from="383432312" to="-383432312"/>
    <trip id="70" depart="141.00" from="-238059328" to="238059324"/>
    <trip id="71" depart="143.00" from="-238059328" to="238059324"/>
    <trip id="72" depart="147.00" from="-238059324" to="238059324"/>
    <trip id="73" depart="148.00" from="23148196" to="-309265402"/>
    <trip id="74" depart="150.00" from="-238059324" to="3092655395#1"/>
    <trip id="75" depart="153.00" from="-238059328" to="309265396#1"/>
    <trip id="76" depart="157.00" from="-238059324" to="3092655395#1"/>
    <trip id="77" depart="158.00" from="-238059324" to="309265396#1"/>
    <trip id="78" depart="160.00" from="-309265400" to="3092655395#1"/>
    <trip id="79" depart="165.00" from="-238059328" to="-383432312"/>
    <trip id="80" depart="165.00" from="-238059324" to="238059324"/>
    <trip id="81" depart="167.00" from="22941893" to="-383432312"/>
    <trip id="82" depart="167.00" from="309265402" to="-383432312"/>
    <trip id="83" depart="169.00" from="383432312" to="-383432312"/>
    <trip id="84" depart="169.00" from="383432312" to="309265396#1"/>
    <trip id="85" depart="169.00" from="309265402" to="238059324"/>
    <trip id="86" depart="173.00" from="309265402" to="309265396#1"/>
    <trip id="87" depart="174.00" from="309265402" to="-309265402"/>
    <trip id="88" depart="176.00" from="23148196" to="-309265402"/>
    <trip id="89" depart="180.00" from="383432312" to="309265396#1"/>
    <trip id="90" depart="182.00" from="23148196" to="3092655395#1"/>
    <trip id="91" depart="182.00" from="22941893" to="-383432312"/>
    <trip id="92" depart="183.00" from="383432312" to="238059328"/>
    <trip id="93" depart="185.00" from="-238059328" to="-383432312"/>
    <trip id="94" depart="187.00" from="22941893" to="-383432312"/>
    <trip id="95" depart="190.00" from="309265402" to="238059328"/>
    <trip id="96" depart="193.00" from="23148196" to="-383432312"/>
    <trip id="97" depart="194.00" from="-238059328" to="309265396#1"/>
    <trip id="98" depart="196.00" from="383432312" to="-383432312"/>
    <trip id="99" depart="197.00" from="383432312" to="238059328"/>
    <trip id="100" depart="199.00" from="309265402" to="238059328"/>
    <trip id="101" depart="202.00" from="309265402" to="-309265402"/>
    <trip id="102" depart="203.00" from="-238059324" to="238059324"/>
    <trip id="103" depart="208.00" from="-238059324" to="238059324"/>
    <trip id="104" depart="210.00" from="309265402" to="309265396#1"/>
    <trip id="105" depart="212.00" from="309265402" to="-383432312"/>
    <trip id="106" depart="214.00" from="22941893" to="3092655395#1"/>
    <trip id="107" depart="217.00" from="-238059328" to="238059324"/>
    <trip id="108" depart="220.00" from="23148196" to="238059328"/>
    <trip id="109" depart="222.00" from="-238059328" to="238059324"/>
    <trip id="110" depart="223.00" from="309265402" to="-309265402"/>
    <trip id="111" depart="225.00" from="22941893" to="-383432312"/>
    <trip id="112" depart="227.00" from="309265402" to="3092655395#1"/>
    <trip id="113" depart="228.00" from="23148196" to="309265396#1"/>
    <trip id="114" depart="230.00" from="22941893" to="238059324"/>
    <trip id="115" depart="234.00" from="-238059324" to="-383432312"/>
    <trip id="116" depart="236.00" from="-238059328" to="-383432312"/>
    <trip id="117" depart="237.00" from="22941893" to="3092655395#1"/>
    <trip id="118" depart="239.00" from="-238059324" to="238059324"/>
    <trip id="119" depart="242.00" from="383432312" to="3092655395#1"/>
    <trip id="120" depart="246.00" from="383432312" to="3092655395#1"/>
    <trip id="121" depart="248.00" from="22941893" to="3092655395#1"/>
    <trip id="122" depart="248.00" from="-238059324" to="-309265402"/>
    <trip id="123" depart="256.00" from="-238059328" to="-383432312"/>
    <trip id="124" depart="259.00" from="309265402" to="238059324"/>
    <trip id="125" depart="263.00" from="-238059324" to="3092655395#1"/>
    <trip id="126" depart="264.00" from="23148196" to="-309265402"/>
    <trip id="127" depart="264.00" from="309265402" to="238059324"/>
    <trip id="128" depart="266.00" from="309265402" to="-383432312"/>
    <trip id="129" depart="270.00" from="22941893" to="238059324"/>
    <trip id="130" depart="270.00" from="-238059324" to="-309265402"/>
    <trip id="131" depart="278.00" from="309265402" to="238059328"/>
</routes>
