<?xml version="1.0" encoding="UTF-8"?>

<!-- generated on Tue Apr 21 00:46:07 2020 by Eclipse SUMO duarouter Version v1_1_0+0000-2147d15
<configuration xmlns:xsi="http://www.w3.org/2001/XMLSchema-instance" xsi:noNamespaceSchemaLocation="http://sumo.dlr.de/xsd/duarouterConfiguration.xsd">

    <input>
        <net-file value="map.net.xml"/>
        <route-files value="map.trips.xml"/>
    </input>

    <output>
        <output-file value="map.rou.xml"/>
        <alternatives-output value="map.rou.alt.xml"/>
    </output>

    <time>
        <begin value="0"/>
        <end value="10000.0"/>
    </time>

    <report>
        <no-warnings value="true"/>
        <ignore-errors value="true"/>
        <no-step-log value="true"/>
    </report>

</configuration>
-->

<routes xmlns:xsi="http://www.w3.org/2001/XMLSchema-instance" xsi:noNamespaceSchemaLocation="http://sumo.dlr.de/xsd/routes_file.xsd">
    <vehicle id="0" depart="0.00">
        <route edges="23738909#0 391593978#0 391593978#1 391593637 391590526#0 391590526#1"/>
    </vehicle>
    <vehicle id="1" depart="0.80">
        <route edges="23695625#0 23695625#1 23695625#2 391593636 97704804#0 392160369#1 392160369#2 392160369#3"/>
    </vehicle>
    <vehicle id="2" depart="1.60">
        <route edges="23738909#0 23738909#1 23738909#2 392160370 392160369#0 392160369#1 23695625#2 391593636 97704804#0 97704804#1 97704804#2"/>
    </vehicle>
    <vehicle id="3" depart="2.40">
        <route edges="96997239 392160370 392160375 391593640#0 391593640#1"/>
    </vehicle>
    <vehicle id="4" depart="3.20">
        <route edges="23738909#0 23738909#1 23738909#2 397401636#0 397401636#1"/>
    </vehicle>
    <vehicle id="5" depart="4.00">
        <route edges="23738909#0 23738909#1 391594304#1"/>
    </vehicle>
    <vehicle id="6" depart="4.80">
        <route edges="392160371 392160372#0 392160372#1 392160372#2 138258184#0 138258184#1"/>
    </vehicle>
    <vehicle id="8" depart="6.40">
        <route edges="23738909#0 391593978#0 391593640#1"/>
    </vehicle>
    <vehicle id="10" depart="8.00">
        <route edges="391593639 391593638 97704804#0 97704804#1 97704804#2"/>
    </vehicle>
    <vehicle id="12" depart="9.60">
        <route edges="23695625#0 392160372#1 97704804#2"/>
    </vehicle>
    <vehicle id="13" depart="10.40">
        <route edges="23695625#0 392160372#1 392160372#2 138258184#0 397401636#1"/>
    </vehicle>
    <vehicle id="14" depart="11.20">
        <route edges="23738909#0 23738909#1 23738909#2 392160370 392160369#0 392160369#1 23695625#2 391593636 97704804#0 97704804#1 97704804#2"/>
    </vehicle>
    <vehicle id="15" depart="12.00">
        <route edges="23695625#0 23695625#1 23695625#2 391593636 97704804#0 392160369#1 392160369#2 392160369#3"/>
    </vehicle>
    <vehicle id="17" depart="13.60">
        <route edges="23738909#0 391593978#0 391593640#1"/>
    </vehicle>
    <vehicle id="18" depart="14.40">
        <route edges="23695625#0 23695625#1 23695625#2 391593636 391593635 391594304#0 23738909#2 392160370 392160375 391593640#0 391593640#1"/>
    </vehicle>
    <vehicle id="19" depart="15.20">
        <route edges="96997239 392160370 392160369#0 392160369#1 23695625#2 391590534 391590536"/>
    </vehicle>
    <vehicle id="20" depart="16.00">
        <route edges="23738909#0 23738909#1 23738909#2 397401636#0 138258184#1"/>
    </vehicle>
    <vehicle id="23" depart="18.40">
        <route edges="23695625#0 23695625#1 23695625#2 391593636 391593635 391594304#0 391594304#1"/>
    </vehicle>
    <vehicle id="24" depart="19.20">
        <route edges="23738909#0 391593978#0 391593640#1"/>
    </vehicle>
    <vehicle id="26" depart="20.80">
        <route edges="662386842 391593978#0 391593640#1"/>
    </vehicle>
    <vehicle id="27" depart="21.60">
        <route edges="391593639 391593638 97704804#0 392160369#1 23695625#2 391593636 391593635 391594304#0 391594304#1"/>
    </vehicle>
    <vehicle id="28" depart="22.40">
        <route edges="96997239 392160370 392160369#0 392160369#1 23695625#2 391593636 97704804#0 97704804#1 97704804#2"/>
    </vehicle>
    <vehicle id="30" depart="24.00">
        <route edges="391593639 391593638 97704804#0 392160369#1 23695625#2 391593636 391593635 391594304#0 23738909#2 397401636#0 397401636#1"/>
    </vehicle>
    <vehicle id="31" depart="24.80">
        <route edges="23695625#0 23695625#1 23695625#2 391593636 97704804#0 392160369#1 392160369#2 392160369#3"/>
    </vehicle>
    <vehicle id="32" depart="25.60">
        <route edges="96997239 392160370 392160369#0 392160369#1 23695625#2 391590534 391590536"/>
    </vehicle>
    <vehicle id="33" depart="26.40">
        <route edges="23695625#0 23695625#1 23695625#2 391590534 391590536"/>
    </vehicle>
    <vehicle id="34" depart="27.20">
        <route edges="392160374 392160373 392160375 391594304#0 391594304#1"/>
    </vehicle>
    <vehicle id="35" depart="28.00">
        <route edges="391593639 391593638 97704804#0 392160369#1 23695625#2 391593636 391593635 391594304#0 23738909#2 397401636#0 138258184#1"/>
    </vehicle>
    <vehicle id="36" depart="28.80">
        <route edges="392160371 392160372#0 392160372#1 392160372#2 138258184#0 397401636#1"/>
    </vehicle>
    <vehicle id="38" depart="30.40">
        <route edges="391590523 392160368#0 392160368#1 97370954"/>
    </vehicle>
    <vehicle id="40" depart="32.00">
        <route edges="662386842 391593978#0 391593978#1 391593637 391590536"/>
    </vehicle>
    <vehicle id="41" depart="32.80">
        <route edges="391590523 391590521 391593636 391593635 391594304#0 391594304#1"/>
    </vehicle>
    <vehicle id="42" depart="33.60">
        <route edges="391261417 391590526#1"/>
    </vehicle>
    <vehicle id="44" depart="35.20">
        <route edges="23695625#0 23695625#1 23695625#2 391593636 97704804#0 392160369#1 392160369#2 392160369#3"/>
    </vehicle>
    <vehicle id="47" depart="37.60">
        <route edges="391590523 391590521 391593636 391593635 391594304#0 23738909#2 397401636#0 397401636#1"/>
    </vehicle>
    <vehicle id="48" depart="38.40">
        <route edges="391593639 391593638 97704804#0 392160369#1 23695625#2 391593636 391593635 391594304#0 23738909#2 392160370 392160375 391593640#0 391593640#1"/>
    </vehicle>
    <vehicle id="49" depart="39.20">
        <route edges="23738909#0 23738909#1 23738909#2 392160370 392160369#0 392160369#1 392160369#2 392160369#3"/>
    </vehicle>
    <vehicle id="50" depart="40.00">
        <route edges="96997239 392160370 392160375 391594304#0 391594304#1"/>
    </vehicle>
    <vehicle id="51" depart="40.80">
        <route edges="23738909#0 391593978#0 391593640#1"/>
    </vehicle>
    <vehicle id="52" depart="41.60">
        <route edges="23738909#0 391593978#0 391593978#1 391593637 391590526#0 391590526#1"/>
    </vehicle>
    <vehicle id="53" depart="42.40">
        <route edges="391590523 391590521 391593636 97704804#0 392160369#1 23695625#2 391590534 391590536"/>
    </vehicle>
    <vehicle id="54" depart="43.20">
        <route edges="391593639 391593638 97704804#0 392160369#1 23695625#2 391593636 391593635 391594304#0 23738909#2 392160370 392160375 391593640#0 391593640#1"/>
    </vehicle>
    <vehicle id="55" depart="44.00">
        <route edges="96997239 392160370 392160375 391594304#0 23738909#2 397401636#0 138258184#1"/>
    </vehicle>
    <vehicle id="56" depart="44.80">
        <route edges="392160374 392160373 392160375 391594304#0 391594304#1"/>
    </vehicle>
    <vehicle id="58" depart="46.40">
        <route edges="391593639 391593638 97704804#0 392160369#1 23695625#2 391593636 391593635 391594304#0 23738909#2 397401636#0 397401636#1"/>
    </vehicle>
    <vehicle id="59" depart="47.20">
        <route edges="392160374 392160373 392160375 391594304#0 23738909#2 392160370 392160369#0 392160369#1 23695625#2 391590534 391590536"/>
    </vehicle>
    <vehicle id="60" depart="48.00">
        <route edges="23695625#0 392160372#1 392160372#2 138258184#0 397401636#1"/>
    </vehicle>
    <vehicle id="61" depart="48.80">
        <route edges="392160371 392160372#0 392160372#1 392160372#2 138258184#0 397401636#1"/>
    </vehicle>
    <vehicle id="63" depart="50.40">
        <route edges="391261417 391590531 392160368#0 392160368#1 97370954"/>
    </vehicle>
    <vehicle id="64" depart="51.20">
        <route edges="391590523 391590521 391593636 97704804#0 97704804#1 97704804#2"/>
    </vehicle>
    <vehicle id="67" depart="53.60">
        <route edges="391590523 392160368#0 392160369#3"/>
    </vehicle>
    <vehicle id="68" depart="54.40">
        <route edges="391590523 391590521 391593636 391593635 391594304#0 23738909#2 397401636#0 397401636#1"/>
    </vehicle>
    <vehicle id="70" depart="56.00">
        <route edges="392160374 392160373 392160375 391593640#0 391593640#1"/>
    </vehicle>
    <vehicle id="72" depart="57.60">
        <route edges="23738909#0 23738909#1 23738909#2 397401636#0 138258184#1"/>
    </vehicle>
    <vehicle id="73" depart="58.40">
        <route edges="23738909#0 23738909#1 23738909#2 397401636#0 397401636#1"/>
    </vehicle>
    <vehicle id="74" depart="59.20">
        <route edges="392160374 138258184#0 397401636#1"/>
    </vehicle>
    <vehicle id="75" depart="60.00">
        <route edges="391261417 391590531 392160368#0 392160369#3"/>
    </vehicle>
    <vehicle id="76" depart="60.80">
        <route edges="23738909#0 23738909#1 23738909#2 397401636#0 138258184#1"/>
    </vehicle>
    <vehicle id="77" depart="61.60">
        <route edges="23695625#0 23695625#1 23695625#2 391590534 391590536"/>
    </vehicle>
    <vehicle id="78" depart="62.40">
        <route edges="391590523 391590521 391593636 97704804#0 392160369#1 23695625#2 391590534 391590536"/>
    </vehicle>
    <vehicle id="82" depart="65.60">
        <route edges="391590523 391590521 391593636 391593635 391594304#0 391594304#1"/>
    </vehicle>
    <vehicle id="84" depart="67.20">
        <route edges="23738909#0 23738909#1 23738909#2 397401636#0 397401636#1"/>
    </vehicle>
    <vehicle id="85" depart="68.00">
        <route edges="96997239 392160370 392160375 391594304#0 391594304#1"/>
    </vehicle>
    <vehicle id="87" depart="69.60">
        <route edges="392160374 392160373 392160375 391593640#0 391593640#1"/>
    </vehicle>
    <vehicle id="89" depart="71.20">
        <route edges="23738909#0 23738909#1 23738909#2 397401636#0 138258184#1"/>
    </vehicle>
    <vehicle id="90" depart="72.00">
        <route edges="391590523 391590521 391593636 97704804#0 392160369#1 23695625#2 391590534 391590536"/>
    </vehicle>
    <vehicle id="91" depart="72.80">
        <route edges="96997239 392160370 392160375 391593640#0 391593640#1"/>
    </vehicle>
    <vehicle id="92" depart="73.60">
        <route edges="96997239 392160370 392160375 391594304#0 23738909#2 397401636#0 397401636#1"/>
    </vehicle>
    <vehicle id="93" depart="74.40">
        <route edges="96997239 392160370 392160375 391594304#0 23738909#2 397401636#0 138258184#1"/>
    </vehicle>
    <vehicle id="94" depart="75.20">
        <route edges="392160374 138258184#0 397401636#1"/>
    </vehicle>
    <vehicle id="96" depart="76.80">
        <route edges="392160371 392160372#0 392160372#1 392160372#2 138258184#0 138258184#1"/>
    </vehicle>
    <vehicle id="97" depart="77.60">
        <route edges="391593639 391593638 97704804#0 392160369#1 23695625#2 391593636 391593635 391594304#0 23738909#2 392160370 392160375 391593640#0 391593640#1"/>
    </vehicle>
    <vehicle id="98" depart="78.40">
        <route edges="392160371 392160372#0 392160372#1 392160372#2 138258184#0 397401636#1"/>
    </vehicle>
    <vehicle id="100" depart="80.00">
        <route edges="23695625#0 392160372#1 392160372#2 138258184#0 397401636#1"/>
    </vehicle>
    <vehicle id="102" depart="81.60">
        <route edges="23738909#0 391593978#0 391593978#1 391593637 391590526#0 391590526#1"/>
    </vehicle>
    <vehicle id="103" depart="82.40">
        <route edges="23738909#0 23738909#1 23738909#2 392160370 392160369#0 392160369#1 23695625#2 391593636 97704804#0 97704804#1 97704804#2"/>
    </vehicle>
    <vehicle id="104" depart="83.20">
        <route edges="392160371 392160372#0 392160372#1 97704804#2"/>
    </vehicle>
    <vehicle id="106" depart="84.80">
        <route edges="23738909#0 23738909#1 23738909#2 397401636#0 138258184#1"/>
    </vehicle>
    <vehicle id="108" depart="86.40">
        <route edges="391590523 391590521 391593636 391593635 391594304#0 23738909#2 397401636#0 138258184#1"/>
    </vehicle>
    <vehicle id="109" depart="87.20">
        <route edges="23695625#0 23695625#1 23695625#2 391590534 391590536"/>
    </vehicle>
    <vehicle id="110" depart="88.00">
        <route edges="96997239 392160370 392160369#0 392160369#1 392160369#2 392160369#3"/>
    </vehicle>
    <vehicle id="111" depart="88.80">
        <route edges="23738909#0 23738909#1 23738909#2 397401636#0 397401636#1"/>
    </vehicle>
    <vehicle id="112" depart="89.60">
        <route edges="23695625#0 23695625#1 23695625#2 391593636 391593635 391594304#0 391594304#1"/>
    </vehicle>
    <vehicle id="113" depart="90.40">
        <route edges="23695625#0 23695625#1 23695625#2 391593636 391593635 391594304#0 23738909#2 392160370 392160375 391593640#0 391593640#1"/>
    </vehicle>
    <vehicle id="115" depart="92.00">
        <route edges="392160374 392160373 392160375 391594304#0 391594304#1"/>
    </vehicle>
    <vehicle id="116" depart="92.80">
        <route edges="391593639 391593638 97704804#0 392160369#1 23695625#2 391593636 391593635 391594304#0 23738909#2 392160370 392160375 391593640#0 391593640#1"/>
    </vehicle>
    <vehicle id="117" depart="93.60">
        <route edges="392160371 392160372#0 392160372#1 97704804#2"/>
    </vehicle>
    <vehicle id="118" depart="94.40">
        <route edges="23738909#0 391593978#0 391593978#1 391593637 391590526#0 391590526#1"/>
    </vehicle>
    <vehicle id="119" depart="95.20">
        <route edges="392160374 392160373 392160375 391594304#0 23738909#2 392160370 392160369#0 392160369#1 23695625#2 391593636 97704804#0 97704804#1 97704804#2"/>
    </vehicle>
    <vehicle id="121" depart="96.80">
        <route edges="391590523 391590521 391593636 391593635 391594304#0 391594304#1"/>
    </vehicle>
    <vehicle id="122" depart="97.60">
        <route edges="392160374 392160373 392160375 391594304#0 391594304#1"/>
    </vehicle>
    <vehicle id="123" depart="98.40">
        <route edges="23738909#0 23738909#1 23738909#2 392160370 392160369#0 392160369#1 392160369#2 392160369#3"/>
    </vehicle>
    <vehicle id="124" depart="99.20">
        <route edges="96997239 392160370 392160375 391594304#0 23738909#2 397401636#0 397401636#1"/>
    </vehicle>
    <vehicle id="126" depart="100.80">
        <route edges="391590523 391590521 391593636 97704804#0 392160369#1 23695625#2 391590534 391590536"/>
    </vehicle>
    <vehicle id="127" depart="101.60">
        <route edges="392160374 392160373 392160375 391593640#0 391593640#1"/>
    </vehicle>
    <vehicle id="128" depart="102.40">
        <route edges="96997239 392160370 392160369#0 392160369#1 392160369#2 392160369#3"/>
    </vehicle>
    <vehicle id="129" depart="103.20">
        <route edges="391590523 391590521 391593636 391593635 391594304#0 23738909#2 392160370 392160375 391593640#0 391593640#1"/>
    </vehicle>
    <vehicle id="131" depart="104.80">
        <route edges="96997239 392160370 392160369#0 392160369#1 23695625#2 391593636 97704804#0 97704804#1 97704804#2"/>
    </vehicle>
    <vehicle id="132" depart="105.60">
        <route edges="96997239 392160370 392160369#0 392160369#1 23695625#2 391593636 97704804#0 97704804#1 97704804#2"/>
    </vehicle>
    <vehicle id="133" depart="106.40">
        <route edges="96997239 392160370 392160375 391594304#0 391594304#1"/>
    </vehicle>
    <vehicle id="134" depart="107.20">
        <route edges="96997239 392160370 392160375 391593640#0 391593640#1"/>
    </vehicle>
    <vehicle id="135" depart="108.00">
        <route edges="391261417 391590531 392160368#0 392160369#3"/>
    </vehicle>
    <vehicle id="136" depart="108.80">
        <route edges="23738909#0 23738909#1 23738909#2 392160370 392160369#0 392160369#1 392160369#2 392160369#3"/>
    </vehicle>
    <vehicle id="137" depart="109.60">
        <route edges="391590523 392160368#0 392160368#1 97370954"/>
    </vehicle>
    <vehicle id="138" depart="110.40">
        <route edges="391593639 391593637 391590536"/>
    </vehicle>
    <vehicle id="140" depart="112.00">
        <route edges="392160374 392160373 392160375 391594304#0 23738909#2 392160370 392160369#0 392160369#1 392160369#2 392160369#3"/>
    </vehicle>
    <vehicle id="142" depart="113.60">
        <route edges="391590523 391590521 391593636 391593635 391594304#0 391594304#1"/>
    </vehicle>
    <vehicle id="143" depart="114.40">
        <route edges="23695625#0 392160372#1 392160372#2 138258184#0 138258184#1"/>
    </vehicle>
    <vehicle id="145" depart="116.00">
        <route edges="96997239 392160370 392160375 391593640#0 391593640#1"/>
    </vehicle>
    <vehicle id="146" depart="116.80">
        <route edges="391590523 391590521 391593636 391593635 391594304#0 23738909#2 397401636#0 138258184#1"/>
    </vehicle>
    <vehicle id="147" depart="117.60">
        <route edges="391261417 391590526#1"/>
    </vehicle>
    <vehicle id="148" depart="118.40">
        <route edges="391590523 391590521 391593636 391593635 391594304#0 23738909#2 397401636#0 138258184#1"/>
    </vehicle>
    <vehicle id="149" depart="119.20">
        <route edges="23738909#0 23738909#1 23738909#2 392160370 392160369#0 392160369#1 392160369#2 392160369#3"/>
    </vehicle>
    <vehicle id="150" depart="120.00">
        <route edges="23695625#0 23695625#1 23695625#2 391590534 391590536"/>
    </vehicle>
    <vehicle id="152" depart="121.60">
        <route edges="392160374 392160373 392160375 391594304#0 23738909#2 392160370 392160369#0 392160369#1 392160369#2 392160369#3"/>
    </vehicle>
    <vehicle id="153" depart="122.40">
        <route edges="662386842 391593978#0 391593640#1"/>
    </vehicle>
    <vehicle id="155" depart="124.00">
        <route edges="391590523 391590521 391593636 391593635 391594304#0 23738909#2 397401636#0 397401636#1"/>
    </vehicle>
    <vehicle id="156" depart="124.80">
        <route edges="23738909#0 391593978#0 391593640#1"/>
    </vehicle>
    <vehicle id="158" depart="126.40">
        <route edges="23695625#0 23695625#1 23695625#2 391590534 391590536"/>
    </vehicle>
    <vehicle id="159" depart="127.20">
        <route edges="391590523 391590521 391593636 97704804#0 392160369#1 23695625#2 391590534 391590536"/>
    </vehicle>
    <vehicle id="160" depart="128.00">
        <route edges="662386842 391593978#0 391593978#1 391593637 391590536"/>
    </vehicle>
    <vehicle id="161" depart="128.80">
        <route edges="392160374 138258184#0 138258184#1"/>
    </vehicle>
    <vehicle id="162" depart="129.60">
        <route edges="391590523 391590521 391593636 391593635 391594304#0 391594304#1"/>
    </vehicle>
    <vehicle id="163" depart="130.40">
        <route edges="23695625#0 392160372#1 97704804#2"/>
    </vehicle>
    <vehicle id="164" depart="131.20">
        <route edges="392160374 392160373 392160375 391594304#0 23738909#2 392160370 392160369#0 392160369#1 23695625#2 391590534 391590536"/>
    </vehicle>
    <vehicle id="169" depart="135.20">
        <route edges="96997239 392160370 392160369#0 392160369#1 23695625#2 391593636 97704804#0 97704804#1 97704804#2"/>
    </vehicle>
    <vehicle id="170" depart="136.00">
        <route edges="23695625#0 392160372#1 97704804#2"/>
    </vehicle>
    <vehicle id="171" depart="136.80">
        <route edges="391590523 391590521 391593636 391593635 391594304#0 23738909#2 397401636#0 397401636#1"/>
    </vehicle>
    <vehicle id="172" depart="137.60">
        <route edges="391593639 391593637 391590526#0 391590526#1"/>
    </vehicle>
    <vehicle id="173" depart="138.40">
        <route edges="391593639 391593638 97704804#0 392160369#1 23695625#2 391593636 391593635 391594304#0 23738909#2 397401636#0 138258184#1"/>
    </vehicle>
    <vehicle id="174" depart="139.20">
        <route edges="391590523 391590521 391593636 391593635 391594304#0 23738909#2 397401636#0 397401636#1"/>
    </vehicle>
    <vehicle id="175" depart="140.00">
        <route edges="391593639 391593638 97704804#0 97704804#1 97704804#2"/>
    </vehicle>
    <vehicle id="176" depart="140.80">
        <route edges="391593639 391593638 97704804#0 97704804#1 97704804#2"/>
    </vehicle>
    <vehicle id="177" depart="141.60">
        <route edges="391590523 391590521 391593636 391593635 391594304#0 23738909#2 392160370 392160375 391593640#0 391593640#1"/>
    </vehicle>
    <vehicle id="178" depart="142.40">
        <route edges="391590523 391590521 391593636 391593635 391594304#0 23738909#2 392160370 392160375 391593640#0 391593640#1"/>
    </vehicle>
    <vehicle id="179" depart="143.20">
        <route edges="391590523 391590521 391593636 97704804#0 97704804#1 97704804#2"/>
    </vehicle>
    <vehicle id="183" depart="146.40">
        <route edges="96997239 392160370 392160369#0 392160369#1 23695625#2 391593636 97704804#0 97704804#1 97704804#2"/>
    </vehicle>
    <vehicle id="185" depart="148.00">
        <route edges="662386842 391593978#0 391593640#1"/>
    </vehicle>
    <vehicle id="186" depart="148.80">
        <route edges="392160374 138258184#0 397401636#1"/>
    </vehicle>
    <vehicle id="187" depart="149.60">
        <route edges="23738909#0 23738909#1 23738909#2 397401636#0 138258184#1"/>
    </vehicle>
    <vehicle id="188" depart="150.40">
        <route edges="391261417 391590531 392160368#0 392160368#1 97370954"/>
    </vehicle>
    <vehicle id="189" depart="151.20">
        <route edges="23695625#0 23695625#1 23695625#2 391593636 391593635 391594304#0 391594304#1"/>
    </vehicle>
    <vehicle id="190" depart="152.00">
        <route edges="23695625#0 23695625#1 23695625#2 391590534 391590536"/>
    </vehicle>
    <vehicle id="191" depart="152.80">
        <route edges="662386842 391593978#0 391593978#1 391593637 391590526#0 391590526#1"/>
    </vehicle>
    <vehicle id="193" depart="154.40">
        <route edges="23738909#0 23738909#1 23738909#2 392160370 392160369#0 392160369#1 392160369#2 392160369#3"/>
    </vehicle>
    <vehicle id="194" depart="155.20">
        <route edges="391590523 391590521 391593636 391593635 391594304#0 23738909#2 397401636#0 397401636#1"/>
    </vehicle>
    <vehicle id="195" depart="156.00">
        <route edges="23695625#0 23695625#1 23695625#2 391593636 391593635 391594304#0 23738909#2 392160370 392160375 391593640#0 391593640#1"/>
    </vehicle>
    <vehicle id="196" depart="156.80">
        <route edges="391590523 391590521 391593636 391593635 391594304#0 23738909#2 397401636#0 397401636#1"/>
    </vehicle>
    <vehicle id="197" depart="157.60">
        <route edges="23695625#0 392160372#1 392160372#2 138258184#0 138258184#1"/>
    </vehicle>
    <vehicle id="198" depart="158.40">
        <route edges="23695625#0 23695625#1 23695625#2 391593636 391593635 391594304#0 391594304#1"/>
    </vehicle>
    <vehicle id="199" depart="159.20">
        <route edges="23738909#0 23738909#1 23738909#2 397401636#0 397401636#1"/>
    </vehicle>
    <vehicle id="200" depart="160.00">
        <route edges="391590523 391590521 391593636 97704804#0 392160369#1 23695625#2 391590534 391590536"/>
    </vehicle>
    <vehicle id="201" depart="160.80">
        <route edges="391590523 392160368#0 392160369#3"/>
    </vehicle>
    <vehicle id="202" depart="161.60">
        <route edges="23738909#0 23738909#1 23738909#2 397401636#0 397401636#1"/>
    </vehicle>
    <vehicle id="203" depart="162.40">
        <route edges="392160374 392160373 392160375 391594304#0 391594304#1"/>
    </vehicle>
    <vehicle id="205" depart="164.00">
        <route edges="23695625#0 392160372#1 392160372#2 138258184#0 138258184#1"/>
    </vehicle>
    <vehicle id="208" depart="166.40">
        <route edges="96997239 392160370 392160375 391594304#0 23738909#2 397401636#0 138258184#1"/>
    </vehicle>
    <vehicle id="209" depart="167.20">
        <route edges="23738909#0 391593978#0 391593978#1 391593637 391590526#0 391590526#1"/>
    </vehicle>
    <vehicle id="210" depart="168.00">
        <route edges="23695625#0 23695625#1 23695625#2 391593636 391593635 391594304#0 23738909#2 392160370 392160375 391593640#0 391593640#1"/>
    </vehicle>
    <vehicle id="211" depart="168.80">
        <route edges="391593639 391593638 97704804#0 392160369#1 23695625#2 391593636 391593635 391594304#0 391594304#1"/>
    </vehicle>
    <vehicle id="212" depart="169.60">
        <route edges="391593639 391593638 97704804#0 97704804#1 97704804#2"/>
    </vehicle>
    <vehicle id="213" depart="170.40">
        <route edges="23695625#0 392160372#1 392160372#2 138258184#0 138258184#1"/>
    </vehicle>
    <vehicle id="216" depart="172.80">
        <route edges="662386842 391593978#0 391593640#1"/>
    </vehicle>
    <vehicle id="217" depart="173.60">
        <route edges="391261417 391590531 392160368#0 392160369#3"/>
    </vehicle>
    <vehicle id="219" depart="175.20">
        <route edges="391261417 391590531 392160368#0 392160368#1 97370954"/>
    </vehicle>
    <vehicle id="220" depart="176.00">
        <route edges="391593639 391593638 97704804#0 392160369#1 23695625#2 391593636 391593635 391594304#0 391594304#1"/>
    </vehicle>
    <vehicle id="221" depart="176.80">
        <route edges="96997239 392160370 392160369#0 392160369#1 23695625#2 391590534 391590536"/>
    </vehicle>
    <vehicle id="222" depart="177.60">
        <route edges="96997239 392160370 392160369#0 392160369#1 392160369#2 392160369#3"/>
    </vehicle>
    <vehicle id="223" depart="178.40">
        <route edges="391590523 392160368#0 392160369#3"/>
    </vehicle>
    <vehicle id="226" depart="180.80">
        <route edges="96997239 392160370 392160375 391594304#0 391594304#1"/>
    </vehicle>
    <vehicle id="227" depart="181.60">
        <route edges="392160374 392160373 392160375 391593640#0 391593640#1"/>
    </vehicle>
    <vehicle id="228" depart="182.40">
        <route edges="391590523 391590521 391593636 391593635 391594304#0 23738909#2 392160370 392160375 391593640#0 391593640#1"/>
    </vehicle>
    <vehicle id="229" depart="183.20">
        <route edges="23695625#0 23695625#1 23695625#2 391593636 391593635 391594304#0 391594304#1"/>
    </vehicle>
    <vehicle id="230" depart="184.00">
        <route edges="96997239 392160370 392160375 391594304#0 23738909#2 397401636#0 138258184#1"/>
    </vehicle>
    <vehicle id="231" depart="184.80">
        <route edges="23695625#0 23695625#1 23695625#2 391593636 391593635 391594304#0 391594304#1"/>
    </vehicle>
    <vehicle id="233" depart="186.40">
        <route edges="392160371 392160372#0 392160372#1 392160372#2 138258184#0 397401636#1"/>
    </vehicle>
    <vehicle id="235" depart="188.00">
        <route edges="23738909#0 391593978#0 391593978#1 391593637 391590526#0 391590526#1"/>
    </vehicle>
    <vehicle id="236" depart="188.80">
        <route edges="96997239 392160370 392160375 391594304#0 23738909#2 397401636#0 397401636#1"/>
    </vehicle>
    <vehicle id="237" depart="189.60">
        <route edges="23738909#0 23738909#1 23738909#2 392160370 392160369#0 392160369#1 23695625#2 391593636 97704804#0 97704804#1 97704804#2"/>
    </vehicle>
    <vehicle id="239" depart="191.20">
        <route edges="23695625#0 23695625#1 23695625#2 391593636 391593635 391594304#0 391594304#1"/>
    </vehicle>
    <vehicle id="241" depart="192.80">
        <route edges="23738909#0 23738909#1 391594304#1"/>
    </vehicle>
    <vehicle id="242" depart="193.60">
        <route edges="391593639 391593638 97704804#0 392160369#1 23695625#2 391593636 391593635 391594304#0 23738909#2 397401636#0 138258184#1"/>
    </vehicle>
    <vehicle id="245" depart="196.00">
        <route edges="391593639 391593638 97704804#0 392160369#1 23695625#2 391593636 391593635 391594304#0 23738909#2 397401636#0 397401636#1"/>
    </vehicle>
    <vehicle id="246" depart="196.80">
        <route edges="23738909#0 391593978#0 391593978#1 391593637 391590536"/>
    </vehicle>
    <vehicle id="247" depart="197.60">
        <route edges="392160374 138258184#0 138258184#1"/>
    </vehicle>
    <vehicle id="249" depart="199.20">
        <route edges="23738909#0 23738909#1 23738909#2 392160370 392160369#0 392160369#1 392160369#2 392160369#3"/>
    </vehicle>
    <vehicle id="255" depart="204.00">
        <route edges="392160374 392160373 392160375 391594304#0 23738909#2 392160370 392160369#0 392160369#1 23695625#2 391593636 97704804#0 97704804#1 97704804#2"/>
    </vehicle>
    <vehicle id="257" depart="205.60">
        <route edges="391590523 391590521 391593636 391593635 391594304#0 23738909#2 397401636#0 138258184#1"/>
    </vehicle>
    <vehicle id="258" depart="206.40">
        <route edges="23738909#0 23738909#1 23738909#2 392160370 392160369#0 392160369#1 23695625#2 391593636 97704804#0 97704804#1 97704804#2"/>
    </vehicle>
    <vehicle id="259" depart="207.20">
        <route edges="23695625#0 23695625#1 23695625#2 391590534 391590536"/>
    </vehicle>
    <vehicle id="260" depart="208.00">
        <route edges="23695625#0 392160372#1 392160372#2 138258184#0 397401636#1"/>
    </vehicle>
    <vehicle id="261" depart="208.80">
        <route edges="391590523 391590521 391593636 391593635 391594304#0 23738909#2 397401636#0 138258184#1"/>
    </vehicle>
    <vehicle id="263" depart="210.40">
        <route edges="96997239 392160370 392160375 391594304#0 23738909#2 397401636#0 397401636#1"/>
    </vehicle>
    <vehicle id="265" depart="212.00">