<?xml version="1.0" encoding="UTF-8"?>

<!-- generated on Ter 21 Abr 2020 00:39:34 WEST by Eclipse SUMO netedit Version v1_1_0+0000-2147d15
<configuration xmlns:xsi="http://www.w3.org/2001/XMLSchema-instance" xsi:noNamespaceSchemaLocation="http://sumo.dlr.de/xsd/netconvertConfiguration.xsd">

    <input>
        <sumo-net-file value="map.net.xml"/>
    </input>

    <output>
        <output-file value="map.net.xml"/>
        <output.street-names value="true"/>
    </output>

    <processing>
        <geometry.max-grade.fix value="false"/>
        <offset.disable-normalization value="true"/>
        <lefthand value="false"/>
    </processing>

    <junctions>
        <no-turnarounds value="true"/>
        <junctions.corner-detail value="5"/>
        <junctions.limit-turn-speed value="5.5"/>
        <rectangular-lane-cut value="false"/>
    </junctions>

    <pedestrian>
        <walkingareas value="false"/>
    </pedestrian>

</configuration>
-->

<net version="1.1" junctionCornerDetail="5" limitTurnSpeed="5.50" xmlns:xsi="http://www.w3.org/2001/XMLSchema-instance" xsi:noNamespaceSchemaLocation="http://sumo.dlr.de/xsd/net_file.xsd">

    <location netOffset="-486892.00,-4287476.43" convBoundary="0.00,0.00,338.35,406.57" origBoundary="-9.150824,38.735864,-9.146927,38.739530" projParameter="+proj=utm +zone=29 +ellps=WGS84 +datum=WGS84 +units=m +no_defs"/>

    <type id="highway.bridleway" priority="1" numLanes="1" speed="2.78" allow="pedestrian" oneway="1" width="2.00"/>
    <type id="highway.bus_guideway" priority="1" numLanes="1" speed="27.78" allow="bus" oneway="1"/>
    <type id="highway.cycleway" priority="1" numLanes="1" speed="8.33" allow="bicycle" oneway="0" width="1.00"/>
    <type id="highway.footway" priority="1" numLanes="1" speed="2.78" allow="pedestrian" oneway="1" width="2.00"/>
    <type id="highway.ford" priority="1" numLanes="1" speed="2.78" allow="army" oneway="0"/>
    <type id="highway.living_street" priority="3" numLanes="1" speed="2.78" disallow="tram rail_urban rail rail_electric ship" oneway="0"/>
    <type id="highway.motorway" priority="13" numLanes="2" speed="44.44" allow="private emergency authority army vip passenger hov taxi bus coach delivery truck trailer motorcycle evehicle custom1 custom2" oneway="1"/>
    <type id="highway.motorway_link" priority="12" numLanes="1" speed="22.22" allow="private emergency authority army vip passenger hov taxi bus coach delivery truck trailer motorcycle evehicle custom1 custom2" oneway="1"/>
    <type id="highway.path" priority="1" numLanes="1" speed="2.78" allow="bicycle pedestrian" oneway="1" width="2.00"/>
    <type id="highway.pedestrian" priority="1" numLanes="1" speed="2.78" allow="pedestrian" oneway="1" width="2.00"/>
    <type id="highway.primary" priority="9" numLanes="2" speed="27.78" disallow="tram rail_urban rail rail_electric ship" oneway="0"/>
    <type id="highway.primary_link" priority="8" numLanes="1" speed="22.22" disallow="tram rail_urban rail rail_electric ship" oneway="0"/>
    <type id="highway.raceway" priority="14" numLanes="2" speed="83.33" allow="vip" oneway="0"/>
    <type id="highway.residential" priority="4" numLanes="1" speed="13.89" disallow="tram rail_urban rail rail_electric ship" oneway="0"/>
    <type id="highway.secondary" priority="7" numLanes="2" speed="27.78" disallow="tram rail_urban rail rail_electric ship" oneway="0"/>
    <type id="highway.secondary_link" priority="6" numLanes="1" speed="22.22" disallow="tram rail_urban rail rail_electric ship" oneway="0"/>
    <type id="highway.service" priority="2" numLanes="1" speed="5.56" allow="delivery bicycle pedestrian" oneway="0"/>
    <type id="highway.stairs" priority="1" numLanes="1" speed="1.39" allow="pedestrian" oneway="1" width="2.00"/>
    <type id="highway.step" priority="1" numLanes="1" speed="1.39" allow="pedestrian" oneway="1" width="2.00"/>
    <type id="highway.steps" priority="1" numLanes="1" speed="1.39" allow="pedestrian" oneway="1" width="2.00"/>
    <type id="highway.tertiary" priority="6" numLanes="1" speed="22.22" disallow="tram rail_urban rail rail_electric ship" oneway="0"/>
    <type id="highway.tertiary_link" priority="5" numLanes="1" speed="22.22" disallow="tram rail_urban rail rail_electric ship" oneway="0"/>
    <type id="highway.track" priority="1" numLanes="1" speed="5.56" disallow="tram rail_urban rail rail_electric ship" oneway="0"/>
    <type id="highway.trunk" priority="11" numLanes="2" speed="27.78" disallow="tram rail_urban rail rail_electric bicycle pedestrian ship" oneway="0"/>
    <type id="highway.trunk_link" priority="10" numLanes="1" speed="22.22" disallow="tram rail_urban rail rail_electric bicycle pedestrian ship" oneway="0"/>
    <type id="highway.unclassified" priority="5" numLanes="1" speed="13.89" disallow="tram rail_urban rail rail_electric ship" oneway="0"/>
    <type id="highway.unsurfaced" priority="1" numLanes="1" speed="8.33" disallow="tram rail_urban rail rail_electric ship" oneway="0"/>
    <type id="railway.light_rail" priority="15" numLanes="1" speed="27.78" allow="rail_urban" oneway="1"/>
    <type id="railway.preserved" priority="15" numLanes="1" speed="27.78" allow="rail" oneway="1"/>
    <type id="railway.rail" priority="15" numLanes="1" speed="83.33" allow="rail rail_electric" oneway="1"/>
    <type id="railway.subway" priority="15" numLanes="1" speed="27.78" allow="rail_urban" oneway="1"/>
    <type id="railway.tram" priority="15" numLanes="1" speed="13.89" allow="tram" oneway="1"/>

    <edge id=":1123843310_0" function="internal">
        <lane id=":1123843310_0_0" index="0" disallow="tram rail_urban rail rail_electric ship" speed="6.52" length="9.03" shape="132.61,95.20 130.14,95.09 128.22,95.79 126.86,97.31 126.05,99.65"/>
    </edge>
    <edge id=":1123843310_1" function="internal">
        <lane id=":1123843310_1_0" index="0" disallow="tram rail_urban rail rail_electric ship" speed="20.84" length="11.18" shape="132.61,95.20 121.62,93.12"/>
        <lane id=":1123843310_1_1" index="1" disallow="tram rail_urban rail rail_electric ship" speed="20.84" length="11.18" shape="133.20,92.06 122.22,89.98"/>
        <lane id=":1123843310_1_2" index="2" disallow="tram rail_urban rail rail_electric ship" speed="20.84" length="11.18" shape="133.80,88.92 122.81,86.83"/>
    </edge>
    <edge id=":1123843310_4" function="internal">
        <lane id=":1123843310_4_0" index="0" disallow="tram rail_urban rail rail_electric ship" speed="13.89" length="17.57" shape="129.35,82.39 126.05,99.65"/>
    </edge>
    <edge id=":1127780294_0" function="internal">
        <lane id=":1127780294_0_0" index="0" disallow="tram rail_urban rail rail_electric ship" speed="8.33" length="11.16" shape="74.38,322.91 63.41,320.81"/>
    </edge>
    <edge id=":1127780294_1" function="internal">
        <lane id=":1127780294_1_0" index="0" disallow="tram rail_urban rail rail_electric ship" speed="6.53" length="9.03" shape="67.91,327.35 68.00,324.88 67.28,322.97 65.75,321.61 63.41,320.81"/>
    </edge>
    <edge id=":1127780294_2" function="internal">
        <lane id=":1127780294_2_0" index="0" disallow="tram rail_urban rail rail_electric ship" speed="13.89" length="11.16" shape="67.91,327.35 69.84,316.35"/>
    </edge>
    <edge id=":1127780298_0" function="internal">
        <lane id=":1127780298_0_0" index="0" disallow="tram rail_urban rail rail_electric ship" speed="8.33" length="14.29" shape="225.22,351.89 211.19,349.20"/>
    </edge>
    <edge id=":1127780298_1" function="internal">
        <lane id=":1127780298_1_0" index="0" disallow="tram rail_urban rail rail_electric ship" speed="6.55" length="9.05" shape="215.68,355.78 215.76,353.29 215.04,351.37 213.52,350.00 211.19,349.20"/>
    </edge>
    <edge id=":1127780298_2" function="internal">
        <lane id=":1127780298_2_0" index="0" disallow="tram rail_urban rail rail_electric ship" speed="13.89" length="11.17" shape="215.68,355.78 217.60,344.77"/>
        <lane id=":1127780298_2_1" index="1" disallow="tram rail_urban rail rail_electric ship" speed="13.89" length="11.17" shape="218.83,356.33 220.76,345.32"/>
    </edge>
    <edge id=":1127780301_0" function="internal">
        <lane id=":1127780301_0_0" index="0" disallow="tram rail_urban rail rail_electric ship" speed="6.54" length="9.00" shape="110.06,211.01 107.60,210.91 105.68,211.61 104.31,213.12 103.48,215.44"/>
    </edge>
    <edge id=":1127780301_1" function="internal">
        <lane id=":1127780301_1_0" index="0" disallow="tram rail_urban rail rail_electric ship" speed="8.33" length="11.11" shape="110.06,211.01 99.13,208.97"/>
    </edge>
    <edge id=":1127780301_2" function="internal">
        <lane id=":1127780301_2_0" index="0" disallow="tram rail_urban rail rail_electric ship" speed="13.89" length="10.49" shape="105.56,205.15 103.48,215.44"/>
    </edge>
    <edge id=":1127780329_0" function="internal">
        <lane id=":1127780329_0_0" index="0" disallow="tram rail_urban rail rail_electric ship" speed="6.49" length="9.03" shape="260.68,239.26 258.21,239.14 256.29,239.84 254.94,241.37 254.15,243.72"/>
    </edge>
    <edge id=":1127780329_1" function="internal">
        <lane id=":1127780329_1_0" index="0" disallow="tram rail_urban rail rail_electric ship" speed="8.33" length="14.41" shape="260.68,239.26 246.52,236.57"/>
    </edge>
    <edge id=":1127780329_2" function="internal">
        <lane id=":1127780329_2_0" index="0" disallow="tram rail_urban rail rail_electric ship" speed="13.89" length="10.55" shape="256.07,233.34 254.15,243.72"/>
        <lane id=":1127780329_2_1" index="1" disallow="tram rail_urban rail rail_electric ship" speed="13.89" length="10.55" shape="252.93,232.76 251.00,243.13"/>
    </edge>
    <edge id=":1127780350_0" function="internal">
        <lane id=":1127780350_0_0" index="0" disallow="tram rail_urban rail rail_electric ship" speed="6.50" length="9.03" shape="239.50,354.57 237.03,354.47 235.12,355.19 233.77,356.72 232.99,359.07"/>
    </edge>
    <edge id=":1127780350_1" function="internal">
        <lane id=":1127780350_1_0" index="0" disallow="tram rail_urban rail rail_electric ship" speed="8.33" length="14.43" shape="239.50,354.57 225.32,351.91"/>
    </edge>
    <edge id=":1127780350_2" function="internal">
        <lane id=":1127780350_2_0" index="0" disallow="tram rail_urban rail rail_electric ship" speed="13.89" length="11.27" shape="234.95,347.96 232.99,359.07"/>
        <lane id=":1127780350_2_1" index="1" disallow="tram rail_urban rail rail_electric ship" speed="13.89" length="11.27" shape="231.80,347.42 229.84,358.50"/>
    </edge>
    <edge id=":1127780356_0" function="internal">
        <lane id=":1127780356_0_0" index="0" disallow="tram rail_urban rail rail_electric ship" speed="8.33" length="11.22" shape="97.59,208.68 86.55,206.62"/>
    </edge>
    <edge id=":1127780356_1" function="internal">
        <lane id=":1127780356_1_0" index="0" disallow="tram rail_urban rail rail_electric ship" speed="6.46" length="9.03" shape="90.95,213.17 91.10,210.69 90.42,208.77 88.90,207.42 86.55,206.62"/>
    </edge>
    <edge id=":1127780356_2" function="internal">
        <lane id=":1127780356_2_0" index="0" disallow="tram rail_urban rail rail_electric ship" speed="13.89" length="10.62" shape="90.95,213.17 92.98,202.75"/>
    </edge>
    <edge id=":1127780358_0" function="internal">
        <lane id=":1127780358_0_0" index="0" disallow="tram rail_urban rail rail_electric ship" speed="6.49" length="9.03" shape="107.65,194.55 107.53,197.03 108.23,198.94 109.75,200.30 112.09,201.09"/>
    </edge>
    <edge id=":1127780358_1" function="internal">
        <lane id=":1127780358_1_0" index="0" disallow="tram rail_urban rail rail_electric ship" speed="13.89" length="10.60" shape="107.65,194.55 105.60,204.96"/>
    </edge>
    <edge id=":1127780358_2" function="internal">
        <lane id=":1127780358_2_0" index="0" disallow="tram rail_urban rail rail_electric ship" speed="8.33" length="11.22" shape="101.07,199.01 112.09,201.09"/>
    </edge>
    <edge id=":1127780379_0" function="internal">
        <lane id=":1127780379_0_0" index="0" disallow="tram rail_urban rail rail_electric ship" speed="6.51" length="9.00" shape="86.95,325.33 84.49,325.21 82.58,325.91 81.22,327.42 80.40,329.75"/>
    </edge>
    <edge id=":1127780379_1" function="internal">
        <lane id=":1127780379_1_0" index="0" disallow="tram rail_urban rail rail_electric ship" speed="8.33" length="11.15" shape="86.95,325.33 76.00,323.22"/>
    </edge>
    <edge id=":1127780379_2" function="internal">
        <lane id=":1127780379_2_0" index="0" disallow="tram rail_urban rail rail_electric ship" speed="13.89" length="11.17" shape="82.48,318.78 80.40,329.75"/>
    </edge>
    <edge id=":1127780383_0" function="internal">
        <lane id=":1127780383_0_0" index="0" disallow="tram rail_urban rail rail_electric ship" speed="6.48" length="9.03" shape="84.91,306.04 84.76,308.52 85.44,310.43 86.96,311.80 89.31,312.60"/>
    </edge>
    <edge id=":1127780383_1" function="internal">
        <lane id=":1127780383_1_0" index="0" disallow="tram rail_urban rail rail_electric ship" speed="13.89" length="11.24" shape="84.91,306.04 82.79,317.08"/>
    </edge>
    <edge id=":1127780383_2" function="internal">
        <lane id=":1127780383_2_0" index="0" disallow="tram rail_urban rail rail_electric ship" speed="8.33" length="11.21" shape="78.29,310.51 89.31,312.60"/>
    </edge>
    <edge id=":1127780411_0" function="internal">
        <lane id=":1127780411_0_0" index="0" disallow="tram rail_urban rail rail_electric ship" speed="8.33" length="14.41" shape="246.42,236.55 232.26,233.90"/>
    </edge>
    <edge id=":1127780411_1" function="internal">
        <lane id=":1127780411_1_0" index="0" disallow="tram rail_urban rail rail_electric ship" speed="6.52" length="9.06" shape="236.77,240.45 236.87,237.97 236.15,236.05 234.62,234.70 232.26,233.90"/>
    </edge>
    <edge id=":1127780411_2" function="internal">
        <lane id=":1127780411_2_0" index="0" disallow="tram rail_urban rail rail_electric ship" speed="13.89" length="10.57" shape="236.77,240.45 238.60,230.06"/>
        <lane id=":1127780411_2_1" index="1" disallow="tram rail_urban rail rail_electric ship" speed="13.89" length="10.57" shape="239.92,241.03 241.76,230.59"/>
    </edge>
    <edge id=":257092998_0" function="internal">
        <lane id=":257092998_0_0" index="0" disallow="tram rail_urban rail rail_electric ship" speed="27.78" length="11.24" shape="119.00,92.62 107.97,90.58"/>
        <lane id=":257092998_0_1" index="1" disallow="tram rail_urban rail rail_electric ship" speed="27.78" length="11.24" shape="119.60,89.48 108.55,87.43"/>
        <lane id=":257092998_0_2" index="2" disallow="tram rail_urban rail rail_electric ship" speed="27.78" length="11.24" shape="120.19,86.33 109.12,84.28"/>
    </edge>
    <edge id=":257092998_3" function="internal">
        <lane id=":257092998_3_0" index="0" disallow="tram rail_urban rail rail_electric ship" speed="6.51" length="9.04" shape="120.19,86.33 117.84,85.53 116.32,84.17 115.61,82.26 115.73,79.78"/>
    </edge>
    <edge id=":257092998_4" function="internal">
        <lane id=":257092998_4_0" index="0" disallow="tram rail_urban rail rail_electric ship" speed="6.50" length="9.03" shape="112.47,97.09 112.57,94.62 111.86,92.71 110.32,91.36 107.97,90.58"/>
    </edge>
    <edge id=":257092998_5" function="internal">
        <lane id=":257092998_5_0" index="0" disallow="tram rail_urban rail rail_electric ship" speed="13.89" length="17.61" shape="112.47,97.09 115.73,79.78"/>
    </edge>
    <edge id=":257093000_0" function="internal">
        <lane id=":257093000_0_0" index="0" disallow="tram rail_urban rail rail_electric ship" speed="6.52" length="9.02" shape="283.09,123.71 280.63,123.61 278.72,124.32 277.36,125.84 276.55,128.18"/>
    </edge>
    <edge id=":257093000_1" function="internal">
        <lane id=":257093000_1_0" index="0" disallow="tram rail_urban rail rail_electric ship" speed="13.89" length="14.35" shape="283.09,123.71 268.99,121.06"/>
        <lane id=":257093000_1_1" index="1" disallow="tram rail_urban rail rail_electric ship" speed="13.89" length="14.35" shape="283.68,120.57 269.58,117.91"/>
        <lane id=":257093000_1_2" index="2" disallow="tram rail_urban rail rail_electric ship" speed="13.89" length="14.35" shape="284.27,117.42 270.17,114.77"/>
    </edge>
    <edge id=":257093000_4" function="internal">
        <lane id=":257093000_4_0" index="0" disallow="tram rail_urban rail rail_electric ship" speed="13.89" length="17.58" shape="279.80,110.88 276.55,128.18"/>
        <lane id=":257093000_4_1" index="1" disallow="tram rail_urban rail rail_electric ship" speed="13.89" length="17.58" shape="276.66,110.31 273.41,127.57"/>
    </edge>
    <edge id=":257093109_0" function="internal">
        <lane id=":257093109_0_0" index="0" disallow="tram rail_urban rail rail_electric ship" speed="6.53" length="8.95" shape="65.68,308.15 68.11,308.24 70.01,307.54 71.37,306.03 72.20,303.72"/>
    </edge>
    <edge id=":257093109_1" function="internal">
        <lane id=":257093109_1_0" index="0" disallow="tram rail_urban rail rail_electric ship" speed="8.33" length="11.03" shape="65.68,308.15 76.52,310.17"/>
    </edge>
    <edge id=":257093109_2" function="internal">
        <lane id=":257093109_2_0" index="0" disallow="tram rail_urban rail rail_electric ship" speed="13.89" length="11.07" shape="70.14,314.60 72.20,303.72"/>
    </edge>
    <edge id=":257093111_0" function="internal">
        <lane id=":257093111_0_0" index="0" disallow="tram rail_urban rail rail_electric ship" speed="6.52" length="9.06" shape="237.26,334.94 237.15,337.42 237.87,339.34 239.41,340.69 241.76,341.48"/>
    </edge>
    <edge id=":257093111_1" function="internal">
        <lane id=":257093111_1_0" index="0" disallow="tram rail_urban rail rail_electric ship" speed="13.89" length="11.26" shape="237.26,334.94 235.29,346.00"/>
        <lane id=":257093111_1_1" index="1" disallow="tram rail_urban rail rail_electric ship" speed="13.89" length="11.26" shape="234.11,334.36 232.13,345.46"/>
    </edge>
    <edge id=":257093111_3" function="internal">
        <lane id=":257093111_3_0" index="0" disallow="tram rail_urban rail rail_electric ship" speed="8.33" length="14.33" shape="227.68,338.85 241.76,341.48"/>
    </edge>
    <edge id=":257093131_0" function="internal">
        <lane id=":257093131_0_0" index="0" disallow="tram rail_urban rail rail_electric ship" speed="6.49" length="9.03" shape="88.40,196.58 90.87,196.70 92.79,196.00 94.14,194.47 94.93,192.12"/>
    </edge>
    <edge id=":257093131_1" function="internal">
        <lane id=":257093131_1_0" index="0" disallow="tram rail_urban rail rail_electric ship" speed="8.33" length="11.23" shape="88.40,196.58 99.42,198.69"/>
    </edge>
    <edge id=":257093131_2" function="internal">
        <lane id=":257093131_2_0" index="0" disallow="tram rail_urban rail rail_electric ship" speed="13.89" length="10.60" shape="93.02,202.55 94.93,192.12"/>
    </edge>
    <edge id=":257093132_0" function="internal">
        <lane id=":257093132_0_0" index="0" disallow="tram rail_urban rail rail_electric ship" speed="6.52" length="9.03" shape="258.08,222.83 257.95,225.29 258.65,227.21 260.16,228.58 262.50,229.41"/>
    </edge>
    <edge id=":257093132_1" function="internal">
        <lane id=":257093132_1_0" index="0" disallow="tram rail_urban rail rail_electric ship" speed="13.89" length="10.52" shape="258.08,222.83 256.11,233.14"/>
        <lane id=":257093132_1_1" index="1" disallow="tram rail_urban rail rail_electric ship" speed="13.89" length="10.52" shape="254.94,222.21 252.96,232.56"/>
    </edge>
    <edge id=":257093132_3" function="internal">
        <lane id=":257093132_3_0" index="0" disallow="tram rail_urban rail rail_electric ship" speed="8.33" length="14.37" shape="248.40,226.63 262.50,229.41"/>
    </edge>
    <edge id=":277836388_0" function="internal">
        <lane id=":277836388_0_0" index="0" disallow="tram rail_urban rail rail_electric ship" speed="6.51" length="9.01" shape="233.98,223.89 236.44,224.00 238.35,223.29 239.71,221.76 240.51,219.43"/>
    </edge>
    <edge id=":277836388_1" function="internal">
        <lane id=":277836388_1_0" index="0" disallow="tram rail_urban rail rail_electric ship" speed="8.33" length="14.40" shape="233.98,223.89 248.12,226.57"/>
    </edge>
    <edge id=":277836388_2" function="internal">
        <lane id=":277836388_2_0" index="0" disallow="tram rail_urban rail rail_electric ship" speed="13.89" length="10.56" shape="238.63,229.86 240.51,219.43"/>
        <lane id=":277836388_2_1" index="1" disallow="tram rail_urban rail rail_electric ship" speed="13.89" length="10.56" shape="241.79,230.39 243.65,220.03"/>
    </edge>
    <edge id=":430215436_0" function="internal">
        <lane id=":430215436_0_0" index="0" disallow="tram rail_urban rail rail_electric ship" speed="13.89" length="14.45" shape="268.36,120.94 254.16,118.25"/>
        <lane id=":430215436_0_1" index="1" disallow="tram rail_urban rail rail_electric ship" speed="13.89" length="14.45" shape="268.95,117.79 254.75,115.11"/>
        <lane id=":430215436_0_2" index="2" disallow="tram rail_urban rail rail_electric ship" speed="13.89" length="14.45" shape="269.55,114.65 255.35,111.96"/>
    </edge>
    <edge id=":430215436_3" function="internal">
        <lane id=":430215436_3_0" index="0" disallow="tram rail_urban rail rail_electric ship" speed="6.57" length="9.14" shape="269.55,114.65 267.19,113.84 265.64,112.47 264.91,110.53 264.99,108.03"/>
    </edge>
    <edge id=":430215436_4" function="internal">
        <lane id=":430215436_4_0" index="0" disallow="tram rail_urban rail rail_electric ship" speed="6.52" length="9.08" shape="258.66,124.81 258.77,122.33 258.06,120.42 256.52,119.06 254.16,118.25"/>
    </edge>
    <edge id=":430215436_5" function="internal">
        <lane id=":430215436_5_0" index="0" disallow="tram rail_urban rail rail_electric ship" speed="13.89" length="17.65" shape="258.66,124.81 261.84,107.47"/>
        <lane id=":430215436_5_1" index="1" disallow="tram rail_urban rail rail_electric ship" speed="13.89" length="17.65" shape="261.80,125.41 264.99,108.03"/>
    </edge>
    <edge id=":430217144_0" function="internal">
        <lane id=":430217144_0_0" index="0" disallow="tram rail_urban rail rail_electric ship" speed="6.50" length="9.03" shape="213.42,336.15 215.89,336.26 217.80,335.55 219.16,334.02 219.95,331.68"/>
    </edge>
    <edge id=":430217144_1" function="internal">
        <lane id=":430217144_1_0" index="0" disallow="tram rail_urban rail rail_electric ship" speed="8.33" length="14.31" shape="213.42,336.15 227.48,338.81"/>
    </edge>
    <edge id=":430217144_2" function="internal">
        <lane id=":430217144_2_0" index="0" disallow="tram rail_urban rail rail_electric ship" speed="13.89" length="11.26" shape="217.95,342.78 219.95,331.68"/>
        <lane id=":430217144_2_1" index="1" disallow="tram rail_urban rail rail_electric ship" speed="13.89" length="11.26" shape="221.11,343.33 223.09,332.26"/>
    </edge>

    <edge id="138258184#0" from="257093131" to="257092998" name="Avenida Marquês de Tomar" priority="4" type="highway.residential" spreadType="center">
        <lane id="138258184#0_0" index="0" disallow="tram rail_urban rail rail_electric ship" speed="13.89" length="96.64" shape="94.93,192.12 112.47,97.09"/>
    </edge>
    <edge id="138258184#1" from="257092998" to="268944232" name="Avenida Marquês de Tomar" priority="4" type="highway.residential" spreadType="center">
        <lane id="138258184#1_0" index="0" disallow="tram rail_urban rail rail_electric ship" speed="13.89" length="81.24" shape="115.73,79.78 131.02,-0.00"/>
    </edge>
    <edge id="23695625#0" from="257093108" to="257093109" name="Avenida Elias Garcia" priority="4" type="highway.residential" spreadType="center">
        <lane id="23695625#0_0" index="0" disallow="tram rail_urban rail rail_electric ship" speed="8.33" length="61.93" shape="4.76,296.98 65.68,308.15"/>
    </edge>
    <edge id="23695625#1" from="257093109" to="1127780383" name="Avenida Elias Garcia" priority="4" type="highway.residential" spreadType="center">
        <lane id="23695625#1_0" index="0" disallow="tram rail_urban rail rail_electric ship" speed="8.33" length="1.80" shape="76.52,310.17 78.29,310.51"/>
    </edge>
    <edge id="23695625#2" from="1127780383" to="430217144" name="Avenida Elias Garcia" priority="4" type="highway.residential" spreadType="center">
        <lane id="23695625#2_0" index="0" disallow="tram rail_urban rail rail_electric ship" speed="8.33" length="126.33" shape="89.31,312.60 213.42,336.15"/>
    </edge>
    <edge id="23738909#0" from="256582711" to="257093000" name="Avenida Miguel Bombarda" priority="7" type="highway.secondary" spreadType="center">
        <lane id="23738909#0_0" index="0" disallow="tram rail_urban rail rail_electric ship" speed="13.89" length="55.63" shape="337.76,133.98 283.09,123.71"/>
        <lane id="23738909#0_1" index="1" disallow="tram rail_urban rail rail_electric ship" speed="13.89" length="55.63" shape="338.35,130.83 283.68,120.57"/>
        <lane id="23738909#0_2" index="2" disallow="tram rail_urban rail rail_electric ship" speed="13.89" length="55.63" shape="338.94,127.68 284.27,117.42"/>
    </edge>
    <edge id="23738909#1" from="257093000" to="430215436" name="Avenida Miguel Bombarda" priority="7" type="highway.secondary" spreadType="center">
        <lane id="23738909#1_0" index="0" disallow="tram rail_urban rail rail_electric ship" speed="13.89" length="0.64" shape="268.99,121.06 268.36,120.94"/>
        <lane id="23738909#1_1" index="1" disallow="tram rail_urban rail rail_electric ship" speed="13.89" length="0.64" shape="269.58,117.91 268.95,117.79"/>
        <lane id="23738909#1_2" index="2" disallow="tram rail_urban rail rail_electric ship" speed="13.89" length="0.64" shape="270.17,114.77 269.55,114.65"/>
    </edge>
    <edge id="23738909#2" from="430215436" to="1123843310" name="Avenida Miguel Bombarda" priority="7" type="highway.secondary" spreadType="center">
        <lane id="23738909#2_0" index="0" disallow="tram rail_urban rail rail_electric ship" speed="13.89" length="123.71" shape="254.16,118.25 132.61,95.20"/>
        <lane id="23738909#2_1" index="1" disallow="tram rail_urban rail rail_electric ship" speed="13.89" length="123.71" shape="254.75,115.11 133.20,92.06"/>
        <lane id="23738909#2_2" index="2" disallow="tram rail_urban rail rail_electric ship" speed="13.89" length="123.71" shape="255.35,111.96 133.80,88.92"/>
    </edge>
    <edge id="391261417" from="1127780359" to="1127780350" name="Avenida Elias Garcia" priority="4" type="highway.residential" spreadType="center">
        <lane id="391261417_0" index="0" disallow="tram rail_urban rail rail_electric ship" speed="8.33" length="80.92" shape="319.09,369.20 239.50,354.57"/>
    </edge>
    <edge id="391590521" from="1127780298" to="430217144" name="Avenida 5 de Outubro" priority="4" type="highway.residential" spreadType="center">
        <lane id="391590521_0" index="0" disallow="tram rail_urban rail rail_electric ship" speed="13.89" length="2.02" shape="217.60,344.77 217.95,342.78"/>
        <lane id="391590521_1" index="1" disallow="tram rail_urban rail rail_electric ship" speed="13.89" length="2.02" shape="220.76,345.32 221.11,343.33"/>
    </edge>
    <edge id="391590523" from="430217143" to="1127780298" name="Avenida 5 de Outubro" priority="4" type="highway.residential" spreadType="center">
        <lane id="391590523_0" index="0" disallow="tram rail_urban rail rail_electric ship" speed="13.89" length="50.42" shape="206.99,405.44 215.68,355.78"/>
        <lane id="391590523_1" index="1" disallow="tram rail_urban rail rail_electric ship" speed="13.89" length="50.42" shape="210.15,406.00 218.83,356.33"/>
    </edge>
    <edge id="391590526#0" from="257093111" to="1127780350" name="Avenida 5 de Outubro" priority="4" type="highway.residential" spreadType="center">
        <lane id="391590526#0_0" index="0" disallow="tram rail_urban rail rail_electric ship" speed="13.89" length="1.98" shape="235.29,346.00 234.95,347.96"/>
        <lane id="391590526#0_1" index="1" disallow="tram rail_urban rail rail_electric ship" speed="13.89" length="1.98" shape="232.13,345.46 231.80,347.42"/>
    </edge>
    <edge id="391590526#1" from="1127780350" to="257093431" name="Avenida 5 de Outubro" priority="4" type="highway.residential" spreadType="center">
        <lane id="391590526#1_0" index="0" disallow="tram rail_urban rail rail_electric ship" speed="13.89" length="48.57" shape="232.99,359.07 224.28,406.86"/>
        <lane id="391590526#1_1" index="1" disallow="tram rail_urban rail rail_electric ship" speed="13.89" length="48.57" shape="229.84,358.50 221.14,406.28"/>
    </edge>
    <edge id="391590531" from="1127780350" to="1127780298" name="Avenida Elias Garcia" priority="4" type="highway.residential" spreadType="center">
        <lane id="391590531_0" index="0" disallow="tram rail_urban rail rail_electric ship" speed="8.33" length="0.10" shape="225.32,351.91 225.22,351.89"/>
    </edge>
    <edge id="391590534" from="430217144" to="257093111" name="Avenida Elias Garcia" priority="4" type="highway.residential" spreadType="center">
        <lane id="391590534_0" index="0" disallow="tram rail_urban rail rail_electric ship" speed="8.33" length="0.20" shape="227.48,338.81 227.68,338.85"/>
    </edge>
    <edge id="391590536" from="257093111" to="207615390" name="Avenida Elias Garcia" priority="4" type="highway.residential" spreadType="center">
        <lane id="391590536_0" index="0" disallow="tram rail_urban rail rail_electric ship" speed="8.33" length="81.36" shape="241.76,341.48 321.76,356.28"/>
    </edge>
    <edge id="391593635" from="1127780411" to="277836388" name="Avenida 5 de Outubro" priority="4" type="highway.residential" spreadType="center">