<?xml version="1.0" encoding="UTF-8"?>
<!-- generated on 2020-01-11 18:44:35.995667 by $Id$
  options: -n grid/grid.net.xml <doubleminus>fringe-factor 1000 <doubleminus>binomial 3 -p 2 <doubleminus>route-file grid/grid.rou.xml -b 0 -e 360
-->
<routes xmlns:xsi="http://www.w3.org/2001/XMLSchema-instance" xsi:noNamespaceSchemaLocation="http://sumo.dlr.de/xsd/routes_file.xsd">
    <trip id="0" depart="0.00" from="-238059328" to="238059324"/>
    <trip id="1" depart="1.00" from="-238059324" to="3092655395#1"/>
    <trip id="2" depart="4.00" from="23148196" to="238059328"/>
    <trip id="3" depart="11.00" from="22941893" to="309265396#1"/>
    <trip id="4" depart="12.00" from="309265402" to="-383432312"/>
    <trip id="5" depart="13.00" from="22941893" to="3092655395#1"/>
    <trip id="6" depart="14.00" from="23148196" to="238059328"/>
    <trip id="7" depart="14.00" from="23148196" to="238059324"/>
    <trip id="8" depart="16.00" from="-238059328" to="238059328"/>
    <trip id="9" depart="16.00" from="-238059324" to="-383432312"/>
    <trip id="10" depart="17.00" from="-238059324" to="-309265402"/>
    <trip id="11" depart="22.00" from="-238059328" to="309265396#1"/>
    <trip id="12" depart="23.00" from="383432312" to="238059324"/>
    <trip id="13" depart="23.00" from="23148196" to="3092655395#1"/>
    <trip id="14" depart="26.00" from="-238059324" to="-309265402"/>
    <trip id="15" depart="28.00" from="309265402" to="309265396#1"/>
    <trip id="16" depart="28.00" from="23148196" to="238059324"/>
    <trip id="17" depart="31.00" from="383432312" to="-309265402"/>
    <trip id="18" depart="33.00" from="-238059324" to="238059328"/>
    <trip id="19" depart="35.00" from="22941893" to="309265396#1"/>
    <trip id="20" depart="35.00" from="22941893" to="238059324"/>
    <trip id="21" depart="37.00" from="383432312" to="-309265402"/>
    <trip id="22" depart="41.00" from="-238059328" to="-383432312"/>
    <trip id="23" depart="42.00" from="383432312" to="-309265402"/>
    <trip id="24" depart="45.00" from="22941893" to="-383432312"/>
    <trip id="25" depart="46.00" from="383432312" to="-383432312"/>
    <trip id="26" depart="48.00" from="383432312" to="3092655395#1"/>
    <trip id="27" depart="49.00" from="309265402" to="309265396#1"/>
    <trip id="28" depart="52.00" from="-238059324" to="238059324"/>
    <trip id="29" depart="54.00" from="-238059328" to="-309265402"/>
    <trip id="30" depart="55.00" from="-238059328" to="-309265402"/>
    <trip id="31" depart="56.00" from="309265402" to="-383432312"/>
    <trip id="32" depart="61.00" from="309265402" to="-383432312"/>
    <trip id="33" depart="64.00" from="22941893" to="309265396#1"/>
    <trip id="34" depart="65.00" from="22941893" to="238059324"/>
    <trip id="35" depart="67.00" from="22941893" to="238059328"/>
    <trip id="36" depart="67.00" from="383432312" to="-309265402"/>
    <trip id="37" depart="69.00" from="22941893" to="3092655395#1"/>
    <trip id="38" depart="69.00" from="-238059328" to="238059328"/>
    <trip id="39" depart="78.00" from="22941893" to="238059328"/>
    <trip id="40" depart="80.00" from="383432312" to="238059324"/>
    <trip id="41" depart="84.00" from="383432312" to="238059324"/>
    <trip id="42" depart="85.00" from="383432312" to="-309265402"/>
    <trip id="43" depart="85.00" from="22941893" to="238059328"/>
    <trip id="44" depart="89.00" from="-238059328" to="-309265402"/>
    <trip id="45" depart="90.00" from="22941893" to="-309265402"/>
    <trip id="46" depart="96.00" from="383432312" to="309265396#1"/>
    <trip id="47" depart="100.00" from="22941893" to="238059328"/>
    <trip id="48" depart="101.00" from="-238059328" to="238059324"/>
    <trip id="49" depart="104.00" from="383432312" to="3092655395#1"/>
    <trip id="50" depart="105.00" from="309265402" to="3092655395#1"/>
    <trip id="51" depart="108.00" from="-238059324" to="3092655395#1"/>
    <trip id="52" depart="109.00" from="-238059328" to="309265396#1"/>
    <trip id="53" depart="109.00" from="383432312" to="-383432312"/>
    <trip id="54" depart="110.00" from="383432312" to="309265396#1"/>
    <trip id="55" depart="115.00" from="22941893" to="3092655395#1"/>
    <trip id="56" depart="117.00" from="23148196" to="238059324"/>
    <trip id="57" depart="118.00" from="383432312" to="-309265402"/>
    <trip id="58" depart="119.00" from="-238059328" to="-383432312"/>
    <trip id="59" depart="123.00" from="383432312" to="-309265402"/>
    <trip id="60" depart="123.00" from="23148196" to="-383432312"/>
    <trip id="61" depart="123.00" from="309265402" to="-383432312"/>
    <trip id="62" depart="130.00" from="383432312" to="238059328"/>
    <trip id="63" depart="132.00" from="22941893" to="-383432312"/>
    <trip id="64" depart="133.00" from="-238059324" to="3092655395#1"/>
    <trip id="65" depart="134.00" from="309265402" to="309265396#1"/>
    <trip id="66" depart="140.00" from="-238059324" to="-309265402"/>
    <trip id="67" depart="141.00" from="-238059324" to="309265396#1"/>
    <trip id="68" depart="143.00" from="23148196" to="309265396#1"/>
    <trip id="69" depart="146.00" from="-238059324" to="3092655395#1"/>
    <trip id="70" depart="148.00" from="22941893" to="3092655395#1"/>
    <trip id="71" depart="151.00" from="-238059324" to="238059328"/>
    <trip id="72" depart="151.00" from="383432312" to="-309265402"/>
    <trip id="73" depart="152.00" from="23148196" to="-309265402"/>
    <trip id="74" depart="152.00" from="22941893" to="309265396#1"/>
    <trip id="75" depart="155.00" from="383432312" to="238059324"/>
    <trip id="76" depart="156.00" from="309265402" to="-309265402"/>
    <trip id="77" depart="158.00" from="-238059324" to="238059328"/>
    <trip id="78" depart="161.00" from="23148196" to="-383432312"/>
    <trip id="79" depart="163.00" from="383432312" to="309265396#1"/>
    <trip id="80" depart="167.00" from="383432312" to="309265396#1"/>
    <trip id="81" depart="167.00" from="309265402" to="-309265402"/>
    <trip id="82" depart="170.00" from="-238059324" to="238059328"/>
    <trip id="83" depart="171.00" from="309265402" to="-309265402"/>
    <trip id="84" depart="171.00" from="383432312" to="-383432312"/>
    <trip id="85" depart="177.00" from="309265402" to="-383432312"/>
    <trip id="86" depart="178.00" from="383432312" to="238059324"/>
    <trip id="87" depart="180.00" from="309265402" to="-383432312"/>
    <trip id="88" depart="184.00" from="23148196" to="-383432312"/>
    <trip id="89" depart="187.00" from="-238059324" to="238059324"/>
    <trip id="90" depart="188.00" from="22941893" to="3092655395#1"/>
    <trip id="91" depart="189.00" from="23148196" to="309265396#1"/>
    <trip id="92" depart="190.00" from="383432312" to="3092655395#1"/>
    <trip id="93" depart="191.00" from="-238059324" to="238059324"/>
    <trip id="94" depart="192.00" from="309265402" to="238059324"/>
    <trip id="95" depart="193.00" from="-238059328" to="-309265402"/>
    <trip id="96" depart="194.00" from="22941893" to="-309265402"/>
    <trip id="97" depart="195.00" from="-238059328" to="309265396#1"/>
    <trip id="98" depart="195.00" from="383432312" to="-309265402"/>
    <trip id="99" depart="197.00" from="-238059324" to="238059324"/>
    <trip id="100" depart="198.00" from="309265402" to="309265396#1"/>
    <trip id="101" depart="198.00" from="22941893" to="-309265402"/>
    <trip id="102" depart="199.00" from="383432312" to="-383432312"/>
    <trip id="103" depart="200.00" from="23148196" to="-309265402"/>
    <trip id="104" depart="202.00" from="309265402" to="238059324"/>
    <trip id="105" depart="204.00" from="-238059328" to="238059328"/>
    <trip id="106" depart="205.00" from="309265402" to="238059324"/>
    <trip id="107" depart="207.00" from="-238059328" to="-383432312"/>
    <trip id="108" depart="209.00" from="22941893" to="-309265402"/>
    <trip id="109" depart="210.00" from="22941893" to="-383432312"/>
    <trip id="110" depart="212.00" from="309265402" to="238059328"/>
    <trip id="111" depart="212.00" from="22941893" to="-383432312"/>
    <trip id="112" depart="216.00" from="383432312" to="-383432312"/>
    <trip id="113" depart="220.00" from="383432312" to="-309265402"/>
    <trip id="114" depart="222.00" from="383432312" to="238059328"/>
    <trip id="115" depart="224.00" from="309265402" to="238059328"/>
    <trip id="116" depart="225.00" from="309265402" to="-383432312"/>
    <trip id="117" depart="228.00" from="-238059328" to="3092655395#1"/>
    <trip id="118" depart="228.00" from="309265402" to="309265396#1"/>
    <trip id="119" depart="230.00" from="22941893" to="3092655395#1"/>
    <trip id="120" depart="234.00" from="23148196" to="238059324"/>
    <trip id="121" depart="236.00" from="22941893" to="3092655395#1"/>
    <trip id="122" depart="237.00" from="383432312" to="-309265402"/>
    <trip id="123" depart="239.00" from="383432312" to="3092655395#1"/>
    <trip id="124" depart="241.00" from="23148196" to="238059324"/>
    <trip id="125" depart="241.00" from="22941893" to="238059328"/>
    <trip id="126" depart="242.00" from="22941893" to="-309265402"/>
    <trip id="127" depart="242.00" from="309265402" to="238059324"/>
    <trip id="128" depart="245.00" from="22941893" to="238059324"/>
    <trip id="129" depart="246.00" from="-238059324" to="-309265402"/>
    <trip id="130" depart="247.00" from="-238059328" to="3092655395#1"/>
    <trip id="131" depart="248.00" from="-238059324" to="-383432312"/>
    <trip id="132" depart="248.00" from="-238059328" to="3092655395#1"/>
    <trip id="133" depart="249.00" from="23148196" to="238059324"/>
    <trip id="134" depart="251.00" from="383432312" to="-309265402"/>
    <trip id="135" depart="251.00" from="23148196" to="238059324"/>
    <trip id="136" depart="254.00" from="-238059324" to="238059328"/>
    <trip id="137" depart="259.00" from="-238059328" to="309265396#1"/>
    <trip id="138" depart="259.00" from="309265402" to="-309265402"/>
    <trip id="139" depart="270.00" from="22941893" to="309265396#1"/>
    <trip id="140" depart="272.00" from="383432312" to="309265396#1"/>
    <trip id="141" depart="272.00" from="309265402" to="-383432312"/>
    <trip id="142" depart="273.00" from="22941893" to="238059328"/>
    <trip id="143" depart="276.00" from="22941893" to="-309265402"/>
    <trip id="144" depart="283.00" from="-238059328" to="238059328"/>
    <trip id="145" depart="285.00" from="309265402" to="3092655395#1"/>
    <trip id="146" depart="286.00" from="23148196" to="238059324"/>
    <trip id="147" depart="286.00" from="22941893" to="3092655395#1"/>
    <trip id="148" depart="287.00" from="23148196" to="-309265402"/>
    <trip id="149" depart="291.00" from="-238059328" to="3092655395#1"/>
    <trip id="150" depart="292.00" from="-238059324" to="238059328"/>
    <trip id="151" depart="293.00" from="22941893" to="238059324"/>
    <trip id="152" depart="297.00" from="-238059328" to="3092655395#1"/>
    <trip id="153" depart="302.00" from="383432312" to="238059324"/>
    <trip id="154" depart="304.00" from="23148196" to="-383432312"/>
    <trip id="155" depart="304.00" from="309265402" to="238059328"/>
    <trip id="156" depart="305.00" from="309265402" to="3092655395#1"/>
    <trip id="157" depart="306.00" from="22941893" to="238059328"/>
    <trip id="158" depart="315.00" from="309265402" to="238059324"/>
    <trip id="159" depart="316.00" from="383432312" to="-309265402"/>
    <trip id="160" depart="318.00" from="-238059324" to="238059328"/>
    <trip id="161" depart="323.00" from="22941893" to="238059328"/>
    <trip id="162" depart="323.00" from="22941893" to="-383432312"/>
    <trip id="163" depart="324.00" from="383432312" to="238059328"/>
    <trip id="164" depart="327.00" from="383432312" to="3092655395#1"/>
    <trip id="165" depart="330.00" from="22941893" to="238059324"/>
    <trip id="166" depart="332.00" from="23148196" to="-309265402"/>
    <trip id="167" depart="333.00" from="383432312" to="-383432312"/>
    <trip id="168" depart="334.00" from="22941893" to="309265396#1"/>
    <trip id="169" depart="336.00" from="309265402" to="238059324"/>
    <trip id="170" depart="336.00" from="309265402" to="309265396#1"/>
    <trip id="171" depart="337.00" from="22941893" to="309265396#1"/>
    <trip id="172" depart="339.00" from="23148196" to="-309265402"/>
    <trip id="173" depart="340.00" from="-238059328" to="309265396#1"/>
    <trip id="174" depart="342.00" from="-238059328" to="309265396#1"/>
    <trip id="175" depart="342.00" from="-238059328" to="-309265402"/>
    <trip id="176" depart="345.00" from="309265402" to="238059324"/>
    <trip id="177" depart="347.00" from="23148196" to="-309265402"/>
    <trip id="178" depart="348.00" from="383432312" to="-309265402"/>
    <trip id="179" depart="348.00" from="23148196" to="-383432312"/>
    <trip id="180" depart="351.00" from="22941893" to="309265396#1"/>
    <trip id="181" depart="354.00" from="383432312" to="-383432312"/>
    <trip id="182" depart="354.00" from="309265402" to="-383432312"/>
    <trip id="183" depart="355.00" from="383432312" to="3092655395#1"/>
    <trip id="184" depart="357.00" from="22941893" to="-309265402"/>
    <trip id="185" depart="358.00" from="23148196" to="238059324"/>
    <trip id="186" depart="359.00" from="309265402" to="3092655395#1"/>
</routes>
