<?xml version="1.0" encoding="UTF-8"?>

<!-- generated on Sat Jan 11 18:49:04 2020 by Eclipse SUMO duarouter Version 1.1.0
<configuration xmlns:xsi="http://www.w3.org/2001/XMLSchema-instance" xsi:noNamespaceSchemaLocation="http://sumo.dlr.de/xsd/duarouterConfiguration.xsd">

    <input>
        <net-file value="grid.net.xml"/>
        <route-files value="trips.trips.xml"/>
    </input>

    <output>
        <output-file value="grid.rou.xml"/>
        <alternatives-output value="grid.rou.alt.xml"/>
    </output>

    <time>
        <begin value="0.0"/>
        <end value="360.0"/>
    </time>

    <report>
        <no-warnings value="true"/>
        <ignore-errors value="true"/>
        <no-step-log value="true"/>
    </report>

</configuration>
-->

<routes xmlns:xsi="http://www.w3.org/2001/XMLSchema-instance" xsi:noNamespaceSchemaLocation="http://sumo.dlr.de/xsd/routes_file.xsd">
    <vehicle id="1" depart="7.00">
        <route edges="-238059328 -309265401 -309265400 309265396#1"/>
    </vehicle>
    <vehicle id="4" depart="10.00">
        <route edges="309265402 309265400 3092655395#1"/>
    </vehicle>
    <vehicle id="8" depart="19.00">
        <route edges="23148196 309265400 309265401 -383432312"/>
    </vehicle>
    <vehicle id="11" depart="21.00">
        <route edges="22941893 -309265400 309265396#1"/>
    </vehicle>
    <vehicle id="12" depart="23.00">
        <route edges="22941893 309265401 -383432312"/>
    </vehicle>
    <vehicle id="16" depart="29.00">
        <route edges="22941893 309265401 -383432312"/>
    </vehicle>
    <vehicle id="19" depart="34.00">
        <route edges="309265402 309265400 3092655395#1"/>
    </vehicle>
    <vehicle id="20" depart="37.00">
        <route edges="22941893 -309265400 309265396#1"/>
    </vehicle>
    <vehicle id="22" depart="39.00">
        <route edges="22941893 -309265400 -309265402"/>
    </vehicle>
    <vehicle id="23" depart="42.00">
        <route edges="22941893 -309265400 309265396#1"/>
    </vehicle>
    <vehicle id="24" depart="53.00">
        <route edges="22941893 309265401 -383432312"/>
    </vehicle>
    <vehicle id="25" depart="54.00">
        <route edges="22941893 309265401 -383432312"/>
    </vehicle>
    <vehicle id="26" depart="54.00">
        <route edges="22941893 309265401 238059328"/>
    </vehicle>
    <vehicle id="27" depart="60.00">
        <route edges="22941893 309265401 238059328"/>
    </vehicle>
    <vehicle id="28" depart="61.00">
        <route edges="22941893 309265401 238059328"/>
    </vehicle>
    <vehicle id="30" depart="66.00">
        <route edges="22941893 -309265400 -309265402"/>
    </vehicle>
    <vehicle id="31" depart="68.00">
        <route edges="23148196 309265400 309265401 238059328"/>
    </vehicle>
    <vehicle id="32" depart="70.00">
        <route edges="22941893 309265401 238059328"/>
    </vehicle>
    <vehicle id="33" depart="74.00">
        <route edges="23148196 309265400 309265401 238059328"/>
    </vehicle>
    <vehicle id="38" depart="84.00">
        <route edges="23148196 309265400 309265401 238059328"/>
    </vehicle>
    <vehicle id="39" depart="86.00">
        <route edges="23148196 -309265402"/>
    </vehicle>
    <vehicle id="40" depart="87.00">
        <route edges="23148196 309265400 309265401 238059328"/>
    </vehicle>
    <vehicle id="41" depart="94.00">
        <route edges="309265402 309265400 309265401 238059328"/>
    </vehicle>
    <vehicle id="43" depart="95.00">
        <route edges="-238059328 238059324"/>
    </vehicle>
    <vehicle id="45" depart="96.00">
        <route edges="309265402 309265400 309265401 238059328"/>
    </vehicle>
    <vehicle id="48" depart="109.00">
        <route edges="-238059328 238059324"/>
    </vehicle>
    <vehicle id="49" depart="110.00">
        <route edges="23148196 309265400 3092655395#1"/>
    </vehicle>
    <vehicle id="53" depart="116.00">
        <route edges="309265402 309265400 3092655395#1"/>
    </vehicle>
    <vehicle id="57" depart="125.00">
        <route edges="383432312 238059324"/>
    </vehicle>
    <vehicle id="58" depart="127.00">
        <route edges="22941893 -309265400 309265396#1"/>
    </vehicle>
    <vehicle id="59" depart="128.00">
        <route edges="-238059324 -383432312"/>
    </vehicle>
    <vehicle id="60" depart="134.00">
        <route edges="22941893 3092655395#1"/>
    </vehicle>
    <vehicle id="61" depart="135.00">
        <route edges="22941893 -309265400 309265396#1"/>
    </vehicle>
    <vehicle id="62" depart="138.00">
        <route edges="-238059324 -309265401 -309265400 -309265402"/>
    </vehicle>
    <vehicle id="63" depart="138.00">
        <route edges="22941893 3092655395#1"/>
    </vehicle>
    <vehicle id="64" depart="140.00">
        <route edges="22941893 -309265400 309265396#1"/>
    </vehicle>
    <vehicle id="65" depart="142.00">
        <route edges="309265402 309265400 309265401 -383432312"/>
    </vehicle>
    <vehicle id="68" depart="144.00">
        <route edges="309265402 309265400 309265401 238059328"/>
    </vehicle>
    <vehicle id="69" depart="145.00">
        <route edges="23148196 309265400 309265401 238059328"/>
    </vehicle>
    <vehicle id="70" depart="146.00">
        <route edges="22941893 -309265400 309265396#1"/>
    </vehicle>
    <vehicle id="71" depart="146.00">
        <route edges="22941893 3092655395#1"/>
    </vehicle>
    <vehicle id="72" depart="147.00">
        <route edges="383432312 238059328"/>
    </vehicle>
    <vehicle id="73" depart="148.00">
        <route edges="22941893 309265401 -383432312"/>
    </vehicle>
    <vehicle id="74" depart="151.00">
        <route edges="309265402 309265400 309265401 238059328"/>
    </vehicle>
    <vehicle id="76" depart="158.00">
        <route edges="309265402 309265400 3092655395#1"/>
    </vehicle>
    <vehicle id="77" depart="160.00">
        <route edges="23148196 309265400 309265401 -383432312"/>
    </vehicle>
    <vehicle id="78" depart="161.00">
        <route edges="23148196 -309265402"/>
    </vehicle>
    <vehicle id="79" depart="163.00">
        <route edges="-238059324 -383432312"/>
    </vehicle>
    <vehicle id="80" depart="165.00">
        <route edges="-238059328 -309265401 -309265400 309265396#1"/>
    </vehicle>
    <vehicle id="81" depart="167.00">
        <route edges="-238059328 -309265401 -309265400 309265396#1"/>
    </vehicle>
    <vehicle id="82" depart="171.00">
        <route edges="309265402 309265400 3092655395#1"/>
    </vehicle>
    <vehicle id="83" depart="172.00">
        <route edges="23148196 309265400 309265401 -383432312"/>
    </vehicle>
    <vehicle id="87" depart="178.00">
        <route edges="23148196 -309265402"/>
    </vehicle>
    <vehicle id="88" depart="178.00">
        <route edges="22941893 309265401 -383432312"/>
    </vehicle>
    <vehicle id="91" depart="182.00">
        <route edges="309265402 309265400 309265401 -383432312"/>
    </vehicle>
    <vehicle id="92" depart="182.00">
        <route edges="22941893 309265401 238059328"/>
    </vehicle>
    <vehicle id="93" depart="184.00">
        <route edges="22941893 309265401 238059328"/>
    </vehicle>
    <vehicle id="94" depart="187.00">
        <route edges="22941893 309265401 238059328"/>
    </vehicle>
    <vehicle id="95" depart="188.00">
        <route edges="23148196 309265400 3092655395#1"/>
    </vehicle>
    <vehicle id="96" depart="189.00">
        <route edges="-238059328 -309265401 -309265400 309265396#1"/>
    </vehicle>
    <vehicle id="98" depart="191.00">
        <route edges="-238059328 -309265401 -309265400 309265396#1"/>
    </vehicle>
    <vehicle id="102" depart="200.00">
        <route edges="23148196 309265400 3092655395#1"/>
    </vehicle>
    <vehicle id="103" depart="201.00">
        <route edges="-238059328 238059324"/>
    </vehicle>
    <vehicle id="104" depart="202.00">
        <route edges="23148196 309265400 3092655395#1"/>
    </vehicle>
    <vehicle id="114" depart="217.00">
        <route edges="-238059324 -309265401 -309265400 309265396#1"/>
    </vehicle>
    <vehicle id="115" depart="217.00">
        <route edges="383432312 238059324"/>
    </vehicle>
    <vehicle id="116" depart="220.00">
        <route edges="23148196 309265396#1"/>
    </vehicle>
    <vehicle id="117" depart="220.00">
        <route edges="-238059328 238059324"/>
    </vehicle>
    <vehicle id="121" depart="228.00">
        <route edges="383432312 238059328"/>
    </vehicle>
    <vehicle id="123" depart="229.00">
        <route edges="-238059328 238059324"/>
    </vehicle>
    <vehicle id="124" depart="230.00">
        <route edges="309265402 309265400 309265401 238059328"/>
    </vehicle>
    <vehicle id="125" depart="231.00">
        <route edges="-238059328 -309265401 -309265400 309265396#1"/>
    </vehicle>
    <vehicle id="126" depart="235.00">
        <route edges="309265402 309265400 309265401 238059328"/>
    </vehicle>
    <vehicle id="128" depart="241.00">
        <route edges="-238059328 -309265401 -309265400 309265396#1"/>
    </vehicle>
    <vehicle id="129" depart="242.00">
        <route edges="22941893 -309265400 -309265402"/>
    </vehicle>
    <vehicle id="130" depart="243.00">
        <route edges="309265402 309265400 309265401 -383432312"/>
    </vehicle>
    <vehicle id="131" depart="245.00">
        <route edges="23148196 309265396#1"/>
    </vehicle>
    <vehicle id="132" depart="249.00">
        <route edges="23148196 309265400 3092655395#1"/>
    </vehicle>
    <vehicle id="134" depart="250.00">
        <route edges="-238059328 -309265401 -309265400 -309265402"/>
    </vehicle>
    <vehicle id="136" depart="256.00">
        <route edges="23148196 309265400 309265401 238059328"/>
    </vehicle>
    <vehicle id="137" depart="259.00">
        <route edges="383432312 238059328"/>
    </vehicle>
    <vehicle id="140" depart="262.00">
        <route edges="-238059324 -383432312"/>
    </vehicle>
    <vehicle id="141" depart="264.00">
        <route edges="23148196 309265400 309265401 -383432312"/>
    </vehicle>
    <vehicle id="142" depart="267.00">
        <route edges="-238059324 -383432312"/>
    </vehicle>
    <vehicle id="143" depart="269.00">
        <route edges="23148196 309265396#1"/>
    </vehicle>
    <vehicle id="144" depart="271.00">
        <route edges="22941893 309265401 238059328"/>
    </vehicle>
    <vehicle id="145" depart="272.00">
        <route edges="309265402 309265400 309265401 238059328"/>
    </vehicle>
    <vehicle id="147" depart="279.00">
        <route edges="23148196 309265396#1"/>
    </vehicle>
    <vehicle id="148" depart="283.00">
        <route edges="-238059324 -309265401 -309265400 309265396#1"/>
    </vehicle>
    <vehicle id="149" depart="285.00">
        <route edges="-238059324 -309265401 -309265400 -309265402"/>
    </vehicle>
    <vehicle id="151" depart="288.00">
        <route edges="309265402 309265400 309265401 -383432312"/>
    </vehicle>
    <vehicle id="152" depart="290.00">
        <route edges="22941893 -309265400 -309265402"/>
    </vehicle>
    <vehicle id="154" depart="304.00">
        <route edges="23148196 309265400 309265401 -383432312"/>
    </vehicle>
    <vehicle id="156" depart="312.00">
        <route edges="23148196 309265400 309265401 -383432312"/>
    </vehicle>
    <vehicle id="158" depart="313.00">
        <route edges="-238059324 -383432312"/>
    </vehicle>
    <vehicle id="160" depart="321.00">
        <route edges="23148196 309265400 309265401 -383432312"/>
    </vehicle>
    <vehicle id="161" depart="322.00">
        <route edges="22941893 309265401 -383432312"/>
    </vehicle>
    <vehicle id="163" depart="325.00">
        <route edges="383432312 238059324"/>
    </vehicle>
    <vehicle id="164" depart="326.00">
        <route edges="383432312 238059324"/>
    </vehicle>
    <vehicle id="165" depart="327.00">
        <route edges="309265402 309265400 309265401 -383432312"/>
    </vehicle>
    <vehicle id="166" depart="330.00">
        <route edges="23148196 309265400 309265401 -383432312"/>
    </vehicle>
    <vehicle id="167" depart="331.00">
        <route edges="-238059324 -383432312"/>
    </vehicle>
    <vehicle id="168" depart="338.00">
        <route edges="309265402 309265400 309265401 238059328"/>
    </vehicle>
    <vehicle id="169" depart="340.00">
        <route edges="383432312 238059328"/>
    </vehicle>
    <vehicle id="170" depart="341.00">
        <route edges="23148196 309265400 309265401 238059328"/>
    </vehicle>
    <vehicle id="172" depart="346.00">
        <route edges="22941893 -309265400 -309265402"/>
    </vehicle>
    <vehicle id="173" depart="348.00">
        <route edges="23148196 309265400 309265401 -383432312"/>
    </vehicle>
    <vehicle id="174" depart="349.00">
        <route edges="-238059328 -309265401 -309265400 309265396#1"/>
    </vehicle>
</routes>
