<?xml version="1.0" encoding="UTF-8"?>
<!-- generated on 2020-01-11 18:49:03.999653 by $Id$
  options: -n grid.net.xml <doubleminus>fringe-factor 1000 <doubleminus>binomial 3 -p 2 <doubleminus>route-file grid.rou.xml -b 0 -e 360
-->
<routes xmlns:xsi="http://www.w3.org/2001/XMLSchema-instance" xsi:noNamespaceSchemaLocation="http://sumo.dlr.de/xsd/routes_file.xsd">
    <trip id="0" depart="6.00" from="-238059328" to="238059328"/>
    <trip id="1" depart="7.00" from="-238059328" to="309265396#1"/>
    <trip id="2" depart="8.00" from="309265402" to="238059324"/>
    <trip id="3" depart="9.00" from="-238059328" to="238059328"/>
    <trip id="4" depart="10.00" from="309265402" to="3092655395#1"/>
    <trip id="5" depart="12.00" from="383432312" to="-383432312"/>
    <trip id="6" depart="14.00" from="383432312" to="3092655395#1"/>
    <trip id="7" depart="18.00" from="-238059328" to="-383432312"/>
    <trip id="8" depart="19.00" from="23148196" to="-383432312"/>
    <trip id="9" depart="20.00" from="-238059324" to="3092655395#1"/>
    <trip id="10" depart="20.00" from="-238059324" to="238059324"/>
    <trip id="11" depart="21.00" from="22941893" to="309265396#1"/>
    <trip id="12" depart="23.00" from="22941893" to="-383432312"/>
    <trip id="13" depart="25.00" from="383432312" to="3092655395#1"/>
    <trip id="14" depart="26.00" from="-238059328" to="-383432312"/>
    <trip id="15" depart="28.00" from="309265402" to="238059324"/>
    <trip id="16" depart="29.00" from="22941893" to="-383432312"/>
    <trip id="17" depart="32.00" from="-238059324" to="238059324"/>
    <trip id="18" depart="32.00" from="383432312" to="3092655395#1"/>
    <trip id="19" depart="34.00" from="309265402" to="3092655395#1"/>
    <trip id="20" depart="37.00" from="22941893" to="309265396#1"/>
    <trip id="21" depart="37.00" from="383432312" to="309265396#1"/>
    <trip id="22" depart="39.00" from="22941893" to="-309265402"/>
    <trip id="23" depart="42.00" from="22941893" to="309265396#1"/>
    <trip id="24" depart="53.00" from="22941893" to="-383432312"/>
    <trip id="25" depart="54.00" from="22941893" to="-383432312"/>
    <trip id="26" depart="54.00" from="22941893" to="238059328"/>
    <trip id="27" depart="60.00" from="22941893" to="238059328"/>
    <trip id="28" depart="61.00" from="22941893" to="238059328"/>
    <trip id="29" depart="65.00" from="-238059324" to="238059324"/>
    <trip id="30" depart="66.00" from="22941893" to="-309265402"/>
    <trip id="31" depart="68.00" from="23148196" to="238059328"/>
    <trip id="32" depart="70.00" from="22941893" to="238059328"/>
    <trip id="33" depart="74.00" from="23148196" to="238059328"/>
    <trip id="34" depart="74.00" from="-238059328" to="-383432312"/>
    <trip id="35" depart="75.00" from="-238059328" to="3092655395#1"/>
    <trip id="36" depart="77.00" from="22941893" to="238059324"/>
    <trip id="37" depart="79.00" from="383432312" to="-383432312"/>
    <trip id="38" depart="84.00" from="23148196" to="238059328"/>
    <trip id="39" depart="86.00" from="23148196" to="-309265402"/>
    <trip id="40" depart="87.00" from="23148196" to="238059328"/>
    <trip id="41" depart="94.00" from="309265402" to="238059328"/>
    <trip id="42" depart="94.00" from="-238059324" to="3092655395#1"/>
    <trip id="43" depart="95.00" from="-238059328" to="238059324"/>
    <trip id="44" depart="96.00" from="-238059328" to="3092655395#1"/>
    <trip id="45" depart="96.00" from="309265402" to="238059328"/>
    <trip id="46" depart="104.00" from="309265402" to="238059324"/>
    <trip id="47" depart="105.00" from="22941893" to="238059324"/>
    <trip id="48" depart="109.00" from="-238059328" to="238059324"/>
    <trip id="49" depart="110.00" from="23148196" to="3092655395#1"/>
    <trip id="50" depart="111.00" from="383432312" to="309265396#1"/>
    <trip id="51" depart="113.00" from="-238059328" to="-383432312"/>
    <trip id="52" depart="115.00" from="309265402" to="309265396#1"/>
    <trip id="53" depart="116.00" from="309265402" to="3092655395#1"/>
    <trip id="54" depart="117.00" from="22941893" to="238059324"/>
    <trip id="55" depart="120.00" from="-238059324" to="238059328"/>
    <trip id="56" depart="120.00" from="309265402" to="309265396#1"/>
    <trip id="57" depart="125.00" from="383432312" to="238059324"/>
    <trip id="58" depart="127.00" from="22941893" to="309265396#1"/>
    <trip id="59" depart="128.00" from="-238059324" to="-383432312"/>
    <trip id="60" depart="134.00" from="22941893" to="3092655395#1"/>
    <trip id="61" depart="135.00" from="22941893" to="309265396#1"/>
    <trip id="62" depart="138.00" from="-238059324" to="-309265402"/>
    <trip id="63" depart="138.00" from="22941893" to="3092655395#1"/>
    <trip id="64" depart="140.00" from="22941893" to="309265396#1"/>
    <trip id="65" depart="142.00" from="309265402" to="-383432312"/>
    <trip id="66" depart="142.00" from="-238059328" to="3092655395#1"/>
    <trip id="67" depart="143.00" from="-238059328" to="238059328"/>
    <trip id="68" depart="144.00" from="309265402" to="238059328"/>
    <trip id="69" depart="145.00" from="23148196" to="238059328"/>
    <trip id="70" depart="146.00" from="22941893" to="309265396#1"/>
    <trip id="71" depart="146.00" from="22941893" to="3092655395#1"/>
    <trip id="72" depart="147.00" from="383432312" to="238059328"/>
    <trip id="73" depart="148.00" from="22941893" to="-383432312"/>
    <trip id="74" depart="151.00" from="309265402" to="238059328"/>
    <trip id="75" depart="153.00" from="383432312" to="309265396#1"/>
    <trip id="76" depart="158.00" from="309265402" to="3092655395#1"/>
    <trip id="77" depart="160.00" from="23148196" to="-383432312"/>
    <trip id="78" depart="161.00" from="23148196" to="-309265402"/>
    <trip id="79" depart="163.00" from="-238059324" to="-383432312"/>
    <trip id="80" depart="165.00" from="-238059328" to="309265396#1"/>
    <trip id="81" depart="167.00" from="-238059328" to="309265396#1"/>
    <trip id="82" depart="171.00" from="309265402" to="3092655395#1"/>
    <trip id="83" depart="172.00" from="23148196" to="-383432312"/>
    <trip id="84" depart="172.00" from="309265402" to="309265396#1"/>
    <trip id="85" depart="174.00" from="-238059324" to="3092655395#1"/>
    <trip id="86" depart="177.00" from="-238059324" to="3092655395#1"/>
    <trip id="87" depart="178.00" from="23148196" to="-309265402"/>
    <trip id="88" depart="178.00" from="22941893" to="-383432312"/>
    <trip id="89" depart="180.00" from="-238059328" to="238059328"/>
    <trip id="90" depart="181.00" from="-238059324" to="238059328"/>
    <trip id="91" depart="182.00" from="309265402" to="-383432312"/>
    <trip id="92" depart="182.00" from="22941893" to="238059328"/>
    <trip id="93" depart="184.00" from="22941893" to="238059328"/>
    <trip id="94" depart="187.00" from="22941893" to="238059328"/>
    <trip id="95" depart="188.00" from="23148196" to="3092655395#1"/>
    <trip id="96" depart="189.00" from="-238059328" to="309265396#1"/>
    <trip id="97" depart="190.00" from="309265402" to="-309265402"/>
    <trip id="98" depart="191.00" from="-238059328" to="309265396#1"/>
    <trip id="99" depart="195.00" from="383432312" to="3092655395#1"/>
    <trip id="100" depart="197.00" from="-238059328" to="238059328"/>
    <trip id="101" depart="198.00" from="383432312" to="-383432312"/>
    <trip id="102" depart="200.00" from="23148196" to="3092655395#1"/>
    <trip id="103" depart="201.00" from="-238059328" to="238059324"/>
    <trip id="104" depart="202.00" from="23148196" to="3092655395#1"/>
    <trip id="105" depart="205.00" from="-238059324" to="238059324"/>
    <trip id="106" depart="205.00" from="-238059328" to="238059328"/>
    <trip id="107" depart="206.00" from="383432312" to="3092655395#1"/>
    <trip id="108" depart="209.00" from="-238059324" to="3092655395#1"/>
    <trip id="109" depart="210.00" from="309265402" to="309265396#1"/>
    <trip id="110" depart="210.00" from="23148196" to="238059324"/>
    <trip id="111" depart="212.00" from="309265402" to="238059324"/>
    <trip id="112" depart="213.00" from="383432312" to="309265396#1"/>
    <trip id="113" depart="214.00" from="-238059328" to="238059328"/>
    <trip id="114" depart="217.00" from="-238059324" to="309265396#1"/>
    <trip id="115" depart="217.00" from="383432312" to="238059324"/>
    <trip id="116" depart="220.00" from="23148196" to="309265396#1"/>
    <trip id="117" depart="220.00" from="-238059328" to="238059324"/>
    <trip id="118" depart="223.00" from="23148196" to="238059324"/>
    <trip id="119" depart="226.00" from="-238059328" to="-383432312"/>
    <trip id="120" depart="227.00" from="-238059324" to="238059328"/>
    <trip id="121" depart="228.00" from="383432312" to="238059328"/>
    <trip id="122" depart="229.00" from="383432312" to="-309265402"/>
    <trip id="123" depart="229.00" from="-238059328" to="238059324"/>
    <trip id="124" depart="230.00" from="309265402" to="238059328"/>
    <trip id="125" depart="231.00" from="-238059328" to="309265396#1"/>
    <trip id="126" depart="235.00" from="309265402" to="238059328"/>
    <trip id="127" depart="239.00" from="383432312" to="-383432312"/>
    <trip id="128" depart="241.00" from="-238059328" to="309265396#1"/>
    <trip id="129" depart="242.00" from="22941893" to="-309265402"/>
    <trip id="130" depart="243.00" from="309265402" to="-383432312"/>
    <trip id="131" depart="245.00" from="23148196" to="309265396#1"/>
    <trip id="132" depart="249.00" from="23148196" to="3092655395#1"/>
    <trip id="133" depart="250.00" from="-238059324" to="238059328"/>
    <trip id="134" depart="250.00" from="-238059328" to="-309265402"/>
    <trip id="135" depart="254.00" from="383432312" to="-383432312"/>
    <trip id="136" depart="256.00" from="23148196" to="238059328"/>
    <trip id="137" depart="259.00" from="383432312" to="238059328"/>
    <trip id="138" depart="261.00" from="-238059324" to="238059324"/>
    <trip id="139" depart="261.00" from="309265402" to="-309265402"/>
    <trip id="140" depart="262.00" from="-238059324" to="-383432312"/>
    <trip id="141" depart="264.00" from="23148196" to="-383432312"/>
    <trip id="142" depart="267.00" from="-238059324" to="-383432312"/>
    <trip id="143" depart="269.00" from="23148196" to="309265396#1"/>
    <trip id="144" depart="271.00" from="22941893" to="238059328"/>
    <trip id="145" depart="272.00" from="309265402" to="238059328"/>
    <trip id="146" depart="277.00" from="22941893" to="238059324"/>
    <trip id="147" depart="279.00" from="23148196" to="309265396#1"/>
    <trip id="148" depart="283.00" from="-238059324" to="309265396#1"/>
    <trip id="149" depart="285.00" from="-238059324" to="-309265402"/>
    <trip id="150" depart="286.00" from="309265402" to="238059324"/>
    <trip id="151" depart="288.00" from="309265402" to="-383432312"/>
    <trip id="152" depart="290.00" from="22941893" to="-309265402"/>
    <trip id="153" depart="300.00" from="309265402" to="238059324"/>
    <trip id="154" depart="304.00" from="23148196" to="-383432312"/>
    <trip id="155" depart="309.00" from="309265402" to="-309265402"/>
    <trip id="156" depart="312.00" from="23148196" to="-383432312"/>
    <trip id="157" depart="312.00" from="-238059324" to="238059324"/>
    <trip id="158" depart="313.00" from="-238059324" to="-383432312"/>
    <trip id="159" depart="318.00" from="383432312" to="-309265402"/>
    <trip id="160" depart="321.00" from="23148196" to="-383432312"/>
    <trip id="161" depart="322.00" from="22941893" to="-383432312"/>
    <trip id="162" depart="323.00" from="-238059328" to="238059328"/>
    <trip id="163" depart="325.00" from="383432312" to="238059324"/>
    <trip id="164" depart="326.00" from="383432312" to="238059324"/>
    <trip id="165" depart="327.00" from="309265402" to="-383432312"/>
    <trip id="166" depart="330.00" from="23148196" to="-383432312"/>
    <trip id="167" depart="331.00" from="-238059324" to="-383432312"/>
    <trip id="168" depart="338.00" from="309265402" to="238059328"/>
    <trip id="169" depart="340.00" from="383432312" to="238059328"/>
    <trip id="170" depart="341.00" from="23148196" to="238059328"/>
    <trip id="171" depart="345.00" from="-238059328" to="238059328"/>
    <trip id="172" depart="346.00" from="22941893" to="-309265402"/>
    <trip id="173" depart="348.00" from="23148196" to="-383432312"/>
    <trip id="174" depart="349.00" from="-238059328" to="309265396#1"/>
    <trip id="175" depart="359.00" from="-238059328" to="238059328"/>
</routes>
