<routes xmlns:xsi="http://www.w3.org/2001/XMLSchema-instance" xsi:noNamespaceSchemaLocation="http://sumo.dlr.de/xsd/routes_file.xsd">
	<vehicle depart="3" departPos="0.0" departSpeed="19.84" id="0001" type="human">
		<route edges="-238059324 -383432312" />
	</vehicle>
	<vehicle depart="5" departPos="0.0" departSpeed="1.14" id="0002" type="human">
		<route edges="-238059324 -309265401" />
	</vehicle>
	<vehicle depart="7" departPos="0.0" departSpeed="14.42" id="0003" type="human">
		<route edges="-238059324 -309265401" />
	</vehicle>
	<vehicle depart="8" departPos="0.0" departSpeed="13.13" id="0004" type="human">
		<route edges="-238059324 -383432312" />
	</vehicle>
	<vehicle depart="9" departPos="0.0" departSpeed="5.76" id="0005" type="human">
		<route edges="-238059324 -383432312" />
	</vehicle>
	<vehicle depart="11" departPos="0.0" departSpeed="9.79" id="0006" type="human">
		<route edges="-238059324 -383432312" />
	</vehicle>
	<vehicle depart="12" departPos="0.0" departSpeed="17.34" id="0007" type="human">
		<route edges="-238059324 -383432312" />
	</vehicle>
	<vehicle depart="13" departPos="0.0" departSpeed="8.62" id="0008" type="human">
		<route edges="-238059324 -309265401" />
	</vehicle>
	<vehicle depart="19" departPos="0.0" departSpeed="14.52" id="0009" type="human">
		<route edges="-238059324 -309265401" />
	</vehicle>
	<vehicle depart="21" departPos="0.0" departSpeed="9.03" id="0010" type="human">
		<route edges="-238059324 -309265401" />
	</vehicle>
	<vehicle depart="23" departPos="0.0" departSpeed="10.17" id="0011" type="human">
		<route edges="-238059324 -309265401" />
	</vehicle>
	<vehicle depart="26" departPos="0.0" departSpeed="10.10" id="0012" type="human">
		<route edges="-238059324 -309265401" />
	</vehicle>
	<vehicle depart="27" departPos="0.0" departSpeed="11.42" id="0013" type="human">
		<route edges="-238059324 -309265401" />
	</vehicle>
	<vehicle depart="28" departPos="0.0" departSpeed="8.05" id="0014" type="human">
		<route edges="-238059324 -309265401" />
	</vehicle>
	<vehicle depart="33" departPos="0.0" departSpeed="7.55" id="0015" type="human">
		<route edges="-238059324 -383432312" />
	</vehicle>
	<vehicle depart="35" departPos="0.0" departSpeed="1.37" id="0016" type="human">
		<route edges="-238059324 -309265401" />
	</vehicle>
	<vehicle depart="36" departPos="0.0" departSpeed="5.12" id="0017" type="human">
		<route edges="-238059324 -383432312" />
	</vehicle>
	<vehicle depart="42" departPos="0.0" departSpeed="4.42" id="0018" type="human">
		<route edges="-238059324 -309265401" />
	</vehicle>
	<vehicle depart="43" departPos="0.0" departSpeed="2.87" id="0019" type="human">
		<route edges="-238059324 -309265401" />
	</vehicle>
	<vehicle depart="45" departPos="0.0" departSpeed="15.15" id="0020" type="human">
		<route edges="-238059324 -383432312" />
	</vehicle>
	<vehicle depart="48" departPos="0.0" departSpeed="18.65" id="0021" type="human">
		<route edges="-238059324 -383432312" />
	</vehicle>
	<vehicle depart="56" departPos="0.0" departSpeed="4.36" id="0022" type="human">
		<route edges="-238059324 -383432312" />
	</vehicle>
	<vehicle depart="57" departPos="0.0" departSpeed="17.44" id="0023" type="human">
		<route edges="-238059324 -383432312" />
	</vehicle>
	<vehicle depart="61" departPos="0.0" departSpeed="20.62" id="0024" type="human">
		<route edges="-238059324 -309265401" />
	</vehicle>
	<vehicle depart="65" departPos="0.0" departSpeed="1.64" id="0025" type="human">
		<route edges="-238059324 -309265401" />
	</vehicle>
	<vehicle depart="68" departPos="0.0" departSpeed="1.09" id="0026" type="human">
		<route edges="-238059324 -309265401" />
	</vehicle>
	<vehicle depart="69" departPos="0.0" departSpeed="14.47" id="0027" type="human">
		<route edges="-238059324 -383432312" />
	</vehicle>
	<vehicle depart="71" departPos="0.0" departSpeed="21.25" id="0028" type="human">
		<route edges="-238059324 -383432312" />
	</vehicle>
	<vehicle depart="73" departPos="0.0" departSpeed="1.84" id="0029" type="human">
		<route edges="-238059324 -309265401" />
	</vehicle>
	<vehicle depart="77" departPos="0.0" departSpeed="15.38" id="0030" type="human">
		<route edges="-238059324 -309265401" />
	</vehicle>
	<vehicle depart="79" departPos="0.0" departSpeed="19.20" id="0031" type="human">
		<route edges="-238059324 -309265401" />
	</vehicle>
	<vehicle depart="80" departPos="0.0" departSpeed="3.51" id="0032" type="human">
		<route edges="-238059324 -383432312" />
	</vehicle>
	<vehicle depart="84" departPos="0.0" departSpeed="3.10" id="0033" type="human">
		<route edges="-238059324 -383432312" />
	</vehicle>
	<vehicle depart="85" departPos="0.0" departSpeed="19.49" id="0034" type="human">
		<route edges="-238059324 -309265401" />
	</vehicle>
	<vehicle depart="86" departPos="0.0" departSpeed="17.75" id="0035" type="human">
		<route edges="-238059324 -383432312" />
	</vehicle>
	<vehicle depart="88" departPos="0.0" departSpeed="5.35" id="0036" type="human">
		<route edges="-238059324 -309265401" />
	</vehicle>
	<vehicle depart="93" departPos="0.0" departSpeed="19.38" id="0037" type="human">
		<route edges="-238059324 -383432312" />
	</vehicle>
	<vehicle depart="94" departPos="0.0" departSpeed="18.48" id="0038" type="human">
		<route edges="-238059324 -309265401" />
	</vehicle>
	<vehicle depart="96" departPos="0.0" departSpeed="9.57" id="0039" type="human">
		<route edges="-238059324 -309265401" />
	</vehicle>
	<vehicle depart="98" departPos="0.0" departSpeed="11.88" id="0040" type="human">
		<route edges="-238059324 -383432312" />
	</vehicle>
	<vehicle depart="100" departPos="0.0" departSpeed="16.69" id="0041" type="human">
		<route edges="-238059324 -383432312" />
	</vehicle>
	<vehicle depart="101" departPos="0.0" departSpeed="15.57" id="0042" type="human">
		<route edges="-238059324 -383432312" />
	</vehicle>
	<vehicle depart="103" departPos="0.0" departSpeed="16.50" id="0043" type="human">
		<route edges="-238059324 -309265401" />
	</vehicle>
	<vehicle depart="104" departPos="0.0" departSpeed="3.47" id="0044" type="human">
		<route edges="-238059324 -383432312" />
	</vehicle>
	<vehicle depart="108" departPos="0.0" departSpeed="1.38" id="0045" type="human">
		<route edges="-238059324 -309265401" />
	</vehicle>
	<vehicle depart="111" departPos="0.0" departSpeed="11.97" id="0046" type="human">
		<route edges="-238059324 -309265401" />
	</vehicle>
	<vehicle depart="112" departPos="0.0" departSpeed="9.70" id="0047" type="human">
		<route edges="-238059324 -309265401" />
	</vehicle>
	<vehicle depart="116" departPos="0.0" departSpeed="3.49" id="0048" type="human">
		<route edges="-238059324 -383432312" />
	</vehicle>
	<vehicle depart="117" departPos="0.0" departSpeed="3.40" id="0049" type="human">
		<route edges="-238059324 -383432312" />
	</vehicle>
	<vehicle depart="118" departPos="0.0" departSpeed="10.65" id="0050" type="human">
		<route edges="-238059324 -309265401" />
	</vehicle>
	<vehicle depart="119" departPos="0.0" departSpeed="10.26" id="0051" type="human">
		<route edges="-238059324 -309265401" />
	</vehicle>
	<vehicle depart="120" departPos="0.0" departSpeed="17.67" id="0052" type="human">
		<route edges="-238059324 -383432312" />
	</vehicle>
	<vehicle depart="123" departPos="0.0" departSpeed="9.76" id="0053" type="human">
		<route edges="-238059324 -309265401" />
	</vehicle>
	<vehicle depart="124" departPos="0.0" departSpeed="2.98" id="0054" type="human">
		<route edges="-238059324 -383432312" />
	</vehicle>
	<vehicle depart="125" departPos="0.0" departSpeed="5.87" id="0055" type="human">
		<route edges="-238059324 -383432312" />
	</vehicle>
	<vehicle depart="128" departPos="0.0" departSpeed="15.60" id="0056" type="human">
		<route edges="-238059324 -309265401" />
	</vehicle>
	<vehicle depart="131" departPos="0.0" departSpeed="0.09" id="0057" type="human">
		<route edges="-238059324 -309265401" />
	</vehicle>
	<vehicle depart="132" departPos="0.0" departSpeed="1.37" id="0058" type="human">
		<route edges="-238059324 -383432312" />
	</vehicle>
	<vehicle depart="133" departPos="0.0" departSpeed="21.58" id="0059" type="human">
		<route edges="-238059324 -383432312" />
	</vehicle>
	<vehicle depart="139" departPos="0.0" departSpeed="0.93" id="0060" type="human">
		<route edges="-238059324 -383432312" />
	</vehicle>
	<vehicle depart="146" departPos="0.0" departSpeed="19.36" id="0061" type="human">
		<route edges="-238059324 -383432312" />
	</vehicle>
	<vehicle depart="148" departPos="0.0" departSpeed="20.09" id="0062" type="human">
		<route edges="-238059324 -309265401" />
	</vehicle>
	<vehicle depart="149" departPos="0.0" departSpeed="15.88" id="0063" type="human">
		<route edges="-238059324 -309265401" />
	</vehicle>
	<vehicle depart="155" departPos="0.0" departSpeed="14.86" id="0064" type="human">
		<route edges="-238059324 -383432312" />
	</vehicle>
	<vehicle depart="158" departPos="0.0" departSpeed="19.17" id="0065" type="human">
		<route edges="-238059324 -383432312" />
	</vehicle>
	<vehicle depart="161" departPos="0.0" departSpeed="3.85" id="0066" type="human">
		<route edges="-238059324 -383432312" />
	</vehicle>
	<vehicle depart="163" departPos="0.0" departSpeed="13.53" id="0067" type="human">
		<route edges="-238059324 -309265401" />
	</vehicle>
	<vehicle depart="168" departPos="0.0" departSpeed="12.82" id="0068" type="human">
		<route edges="-238059324 -383432312" />
	</vehicle>
	<vehicle depart="176" departPos="0.0" departSpeed="2.27" id="0069" type="human">
		<route edges="-238059324 -309265401" />
	</vehicle>
	<vehicle depart="177" departPos="0.0" departSpeed="4.66" id="0070" type="human">
		<route edges="-238059324 -309265401" />
	</vehicle>
	<vehicle depart="178" departPos="0.0" departSpeed="12.67" id="0071" type="human">
		<route edges="-238059324 -383432312" />
	</vehicle>
	<vehicle depart="182" departPos="0.0" departSpeed="12.28" id="0072" type="human">
		<route edges="-238059324 -383432312" />
	</vehicle>
	<vehicle depart="184" departPos="0.0" departSpeed="17.10" id="0073" type="human">
		<route edges="-238059324 -383432312" />
	</vehicle>
	<vehicle depart="185" departPos="0.0" departSpeed="22.13" id="0074" type="human">
		<route edges="-238059324 -383432312" />
	</vehicle>
	<vehicle depart="186" departPos="0.0" departSpeed="16.46" id="0075" type="human">
		<route edges="-238059324 -309265401" />
	</vehicle>
	<vehicle depart="187" departPos="0.0" departSpeed="12.74" id="0076" type="human">
		<route edges="-238059324 -383432312" />
	</vehicle>
	<vehicle depart="191" departPos="0.0" departSpeed="1.13" id="0077" type="human">
		<route edges="-238059324 -383432312" />
	</vehicle>
	<vehicle depart="196" departPos="0.0" departSpeed="2.68" id="0078" type="human">
		<route edges="-238059324 -309265401" />
	</vehicle>
	<vehicle depart="197" departPos="0.0" departSpeed="12.09" id="0079" type="human">
		<route edges="-238059324 -383432312" />
	</vehicle>
	<vehicle depart="200" departPos="0.0" departSpeed="22.20" id="0080" type="human">
		<route edges="-238059324 -309265401" />
	</vehicle>
	<vehicle depart="203" departPos="0.0" departSpeed="9.42" id="0081" type="human">
		<route edges="-238059324 -383432312" />
	</vehicle>
	<vehicle depart="205" departPos="0.0" departSpeed="7.66" id="0082" type="human">
		<route edges="-238059324 -309265401" />
	</vehicle>
	<vehicle depart="206" departPos="0.0" departSpeed="14.67" id="0083" type="human">
		<route edges="-238059324 -309265401" />
	</vehicle>
	<vehicle depart="207" departPos="0.0" departSpeed="13.77" id="0084" type="human">
		<route edges="-238059324 -383432312" />
	</vehicle>
	<vehicle depart="209" departPos="0.0" departSpeed="16.79" id="0085" type="human">
		<route edges="-238059324 -309265401" />
	</vehicle>
	<vehicle depart="210" departPos="0.0" departSpeed="20.11" id="0086" type="human">
		<route edges="-238059324 -309265401" />
	</vehicle>
	<vehicle depart="211" departPos="0.0" departSpeed="6.49" id="0087" type="human">
		<route edges="-238059324 -383432312" />
	</vehicle>
	<vehicle depart="212" departPos="0.0" departSpeed="9.70" id="0088" type="human">
		<route edges="-238059324 -383432312" />
	</vehicle>
	<vehicle depart="218" departPos="0.0" departSpeed="10.90" id="0089" type="human">
		<route edges="-238059324 -309265401" />
	</vehicle>
	<vehicle depart="219" departPos="0.0" departSpeed="4.66" id="0090" type="human">
		<route edges="-238059324 -383432312" />
	</vehicle>
	<vehicle depart="228" departPos="0.0" departSpeed="22.09" id="0091" type="human">
		<route edges="-238059324 -383432312" />
	</vehicle>
	<vehicle depart="231" departPos="0.0" departSpeed="15.21" id="0092" type="human">
		<route edges="-238059324 -383432312" />
	</vehicle>
	<vehicle depart="233" departPos="0.0" departSpeed="1.82" id="0093" type="human">
		<route edges="-238059324 -309265401" />
	</vehicle>
	<vehicle depart="234" departPos="0.0" departSpeed="14.81" id="0094" type="human">
		<route edges="-238059324 -309265401" />
	</vehicle>
	<vehicle depart="236" departPos="0.0" departSpeed="16.47" id="0095" type="human">
		<route edges="-238059324 -309265401" />
	</vehicle>
	<vehicle depart="237" departPos="0.0" departSpeed="1.36" id="0096" type="human">
		<route edges="-238059324 -383432312" />
	</vehicle>
	<vehicle depart="238" departPos="0.0" departSpeed="13.45" id="0097" type="human">
		<route edges="-238059324 -383432312" />
	</vehicle>
	<vehicle depart="241" departPos="0.0" departSpeed="9.95" id="0098" type="human">
		<route edges="-238059324 -383432312" />
	</vehicle>
	<vehicle depart="243" departPos="0.0" departSpeed="13.86" id="0099" type="human">
		<route edges="-238059324 -383432312" />
	</vehicle>
	<vehicle depart="244" departPos="0.0" departSpeed="21.46" id="0100" type="human">
		<route edges="-238059324 -383432312" />
	</vehicle>
	<vehicle depart="247" departPos="0.0" departSpeed="20.71" id="0101" type="human">
		<route edges="-238059324 -383432312" />
	</vehicle>
	<vehicle depart="250" departPos="0.0" departSpeed="2.40" id="0102" type="human">
		<route edges="-238059324 -383432312" />
	</vehicle>
	<vehicle depart="253" departPos="0.0" departSpeed="8.70" id="0103" type="human">
		<route edges="-238059324 -383432312" />
	</vehicle>
	<vehicle depart="254" departPos="0.0" departSpeed="19.10" id="0104" type="human">
		<route edges="-238059324 -309265401" />
	</vehicle>
	<vehicle depart="255" departPos="0.0" departSpeed="17.87" id="0105" type="human">
		<route edges="-238059324 -383432312" />
	</vehicle>
	<vehicle depart="256" departPos="0.0" departSpeed="17.49" id="0106" type="human">
		<route edges="-238059324 -309265401" />
	</vehicle>
	<vehicle depart="259" departPos="0.0" departSpeed="4.74" id="0107" type="human">
		<route edges="-238059324 -383432312" />
	</vehicle>
	<vehicle depart="263" departPos="0.0" departSpeed="13.21" id="0108" type="human">
		<route edges="-238059324 -309265401" />
	</vehicle>
	<vehicle depart="264" departPos="0.0" departSpeed="6.56" id="0109" type="human">
		<route edges="-238059324 -383432312" />
	</vehicle>
	<vehicle depart="265" departPos="0.0" departSpeed="18.54" id="0110" type="human">
		<route edges="-238059324 -309265401" />
	</vehicle>
	<vehicle depart="266" departPos="0.0" departSpeed="3.65" id="0111" type="human">
		<route edges="-238059324 -309265401" />
	</vehicle>
	<vehicle depart="267" departPos="0.0" departSpeed="18.75" id="0112" type="human">
		<route edges="-238059324 -309265401" />
	</vehicle>
	<vehicle depart="275" departPos="0.0" departSpeed="2.35" id="0113" type="human">
		<route edges="-238059324 -383432312" />
	</vehicle>
	<vehicle depart="279" departPos="0.0" departSpeed="20.02" id="0114" type="human">
		<route edges="-238059324 -383432312" />
	</vehicle>
	<vehicle depart="281" departPos="0.0" departSpeed="0.40" id="0115" type="human">
		<route edges="-238059324 -383432312" />
	</vehicle>
	<vehicle depart="284" departPos="0.0" departSpeed="15.67" id="0116" type="human">
		<route edges="-238059324 -383432312" />
	</vehicle>
	<vehicle depart="285" departPos="0.0" departSpeed="1.48" id="0117" type="human">
		<route edges="-238059324 -309265401" />
	</vehicle>
	<vehicle depart="286" departPos="0.0" departSpeed="6.46" id="0118" type="human">
		<route edges="-238059324 -309265401" />
	</vehicle>
	<vehicle depart="292" departPos="0.0" departSpeed="0.48" id="0119" type="human">
		<route edges="-238059324 -383432312" />
	</vehicle>
	<vehicle depart="296" departPos="0.0" departSpeed="8.74" id="0120" type="human">
		<route edges="-238059324 -309265401" />
	</vehicle>
	<vehicle depart="302" departPos="0.0" departSpeed="16.07" id="0121" type="human">
		<route edges="-238059324 -309265401" />
	</vehicle>
	<vehicle depart="306" departPos="0.0" departSpeed="4.89" id="0122" type="human">
		<route edges="-238059324 -383432312" />
	</vehicle>
	<vehicle depart="308" departPos="0.0" departSpeed="8.36" id="0123" type="human">
		<route edges="-238059324 -383432312" />
	</vehicle>
	<vehicle depart="310" departPos="0.0" departSpeed="5.53" id="0124" type="human">
		<route edges="-238059324 -309265401" />
	</vehicle>
	<vehicle depart="316" departPos="0.0" departSpeed="15.02" id="0125" type="human">
		<route edges="-238059324 -383432312" />
	</vehicle>
	<vehicle depart="318" departPos="0.0" departSpeed="5.46" id="0126" type="human">
		<route edges="-238059324 -383432312" />
	</vehicle>
	<vehicle depart="321" departPos="0.0" departSpeed="1.74" id="0127" type="human">
		<route edges="-238059324 -383432312" />
	</vehicle>
	<vehicle depart="327" departPos="0.0" departSpeed="0.03" id="0128" type="human">
		<route edges="-238059324 -309265401" />
	</vehicle>
	<vehicle depart="329" departPos="0.0" departSpeed="5.44" id="0129" type="human">
		<route edges="-238059324 -309265401" />
	</vehicle>
	<vehicle depart="334" departPos="0.0" departSpeed="4.59" id="0130" type="human">
		<route edges="-238059324 -309265401" />
	</vehicle>
	<vehicle depart="336" departPos="0.0" departSpeed="15.51" id="0131" type="human">
		<route edges="-238059324 -383432312" />
	</vehicle>
	<vehicle depart="338" departPos="0.0" departSpeed="5.28" id="0132" type="human">
		<route edges="-238059324 -309265401" />
	</vehicle>
	<vehicle depart="339" departPos="0.0" departSpeed="21.61" id="0133" type="human">
		<route edges="-238059324 -309265401" />
	</vehicle>
	<vehicle depart="343" departPos="0.0" departSpeed="10.76" id="0134" type="human">
		<route edges="-238059324 -383432312" />
	</vehicle>
	<vehicle depart="344" departPos="0.0" departSpeed="5.76" id="0135" type="human">
		<route edges="-238059324 -383432312" />
	</vehicle>
	<vehicle depart="347" departPos="0.0" departSpeed="15.89" id="0136" type="human">
		<route edges="-238059324 -309265401" />
	</vehicle>
	<vehicle depart="350" departPos="0.0" departSpeed="15.44" id="0137" type="human">
		<route edges="-238059324 -309265401" />
	</vehicle>
	<vehicle depart="354" departPos="0.0" departSpeed="15.13" id="0138" type="human">
		<route edges="-238059324 -309265401" />
	</vehicle>
	<vehicle depart="355" departPos="0.0" departSpeed="2.78" id="0139" type="human">
		<route edges="-238059324 -383432312" />
	</vehicle>
	<vehicle depart="356" departPos="0.0" departSpeed="14.87" id="0140" type="human">
		<route edges="-238059324 -309265401" />
	</vehicle>
	<vehicle depart="357" departPos="0.0" departSpeed="18.92" id="0141" type="human">
		<route edges="-238059324 -383432312" />
	</vehicle>
	<vehicle depart="360" departPos="0.0" departSpeed="7.31" id="0142" type="human">
		<route edges="-238059324 -309265401" />
	</vehicle>
	<vehicle depart="361" departPos="0.0" departSpeed="16.91" id="0143" type="human">
		<route edges="-238059324 -309265401" />
	</vehicle>
	<vehicle depart="362" departPos="0.0" departSpeed="10.07" id="0144" type="human">
		<route edges="-238059324 -383432312" />
	</vehicle>
	<vehicle depart="363" departPos="0.0" departSpeed="9.74" id="0145" type="human">
		<route edges="-238059324 -383432312" />
	</vehicle>
	<vehicle depart="364" departPos="0.0" departSpeed="22.02" id="0146" type="human">
		<route edges="-238059324 -383432312" />
	</vehicle>
	<vehicle depart="366" departPos="0.0" departSpeed="4.09" id="0147" type="human">
		<route edges="-238059324 -383432312" />
	</vehicle>
	<vehicle depart="368" departPos="0.0" departSpeed="0.10" id="0148" type="human">
		<route edges="-238059324 -383432312" />
	</vehicle>
	<vehicle depart="371" departPos="0.0" departSpeed="17.95" id="0149" type="human">
		<route edges="-238059324 -383432312" />
	</vehicle>
	<vehicle depart="373" departPos="0.0" departSpeed="7.69" id="0150" type="human">
		<route edges="-238059324 -383432312" />
	</vehicle>
	<vehicle depart="376" departPos="0.0" departSpeed="12.52" id="0151" type="human">
		<route edges="-238059324 -383432312" />
	</vehicle>
	<vehicle depart="380" departPos="0.0" departSpeed="6.40" id="0152" type="human">
		<route edges="-238059324 -383432312" />
	</vehicle>
	<vehicle depart="381" departPos="0.0" departSpeed="15.94" id="0153" type="human">
		<route edges="-238059324 -309265401" />
	</vehicle>
	<vehicle depart="385" departPos="0.0" departSpeed="6.48" id="0154" type="human">
		<route edges="-238059324 -309265401" />
	</vehicle>
	<vehicle depart="386" departPos="0.0" departSpeed="7.24" id="0155" type="human">
		<route edges="-238059324 -383432312" />
	</vehicle>
	<vehicle depart="387" departPos="0.0" departSpeed="6.86" id="0156" type="human">
		<route edges="-238059324 -383432312" />
	</vehicle>
	<vehicle depart="388" departPos="0.0" departSpeed="1.10" id="0157" type="human">
		<route edges="-238059324 -309265401" />
	</vehicle>
	<vehicle depart="392" departPos="0.0" departSpeed="0.41" id="0158" type="human">
		<route edges="-238059324 -383432312" />
	</vehicle>
	<vehicle depart="393" departPos="0.0" departSpeed="11.32" id="0159" type="human">
		<route edges="-238059324 -309265401" />
	</vehicle>
	<vehicle depart="394" departPos="0.0" departSpeed="21.65" id="0160" type="human">
		<route edges="-238059324 -309265401" />
	</vehicle>
	<vehicle depart="398" departPos="0.0" departSpeed="4.33" id="0161" type="human">
		<route edges="-238059324 -383432312" />
	</vehicle>
	<vehicle depart="399" departPos="0.0" departSpeed="12.64" id="0162" type="human">
		<route edges="-238059324 -383432312" />
	</vehicle>
	<vehicle depart="400" departPos="0.0" departSpeed="17.13" id="0163" type="human">
		<route edges="-238059324 -309265401" />
	</vehicle>
	<vehicle depart="403" departPos="0.0" departSpeed="12.82" id="0164" type="human">
		<route edges="-238059324 -383432312" />
	</vehicle>
	<vehicle depart="404" departPos="0.0" departSpeed="13.79" id="0165" type="human">
		<route edges="-238059324 -309265401" />
	</vehicle>
	<vehicle depart="407" departPos="0.0" departSpeed="4.52" id="0166" type="human">
		<route edges="-238059324 -383432312" />
	</vehicle>
	<vehicle depart="410" departPos="0.0" departSpeed="11.28" id="0167" type="human">
		<route edges="-238059324 -383432312" />
	</vehicle>
	<vehicle depart="413" departPos="0.0" departSpeed="5.56" id="0168" type="human">
		<route edges="-238059324 -383432312" />
	</vehicle>
	<vehicle depart="417" departPos="0.0" departSpeed="11.95" id="0169" type="human">
		<route edges="-238059324 -383432312" />
	</vehicle>
	<vehicle depart="419" departPos="0.0" departSpeed="21.11" id="0170" type="human">
		<route edges="-238059324 -383432312" />
	</vehicle>
	<vehicle depart="421" departPos="0.0" departSpeed="12.35" id="0171" type="human">
		<route edges="-238059324 -383432312" />
	</vehicle>
	<vehicle depart="422" departPos="0.0" departSpeed="19.08" id="0172" type="human">
		<route edges="-238059324 -383432312" />
	</vehicle>
	<vehicle depart="423" departPos="0.0" departSpeed="14.06" id="0173" type="human">
		<route edges="-238059324 -383432312" />
	</vehicle>
	<vehicle depart="425" departPos="0.0" departSpeed="16.28" id="0174" type="human">
		<route edges="-238059324 -383432312" />
	</vehicle>
	<vehicle depart="431" departPos="0.0" departSpeed="11.46" id="0175" type="human">
		<route edges="-238059324 -383432312" />
	</vehicle>
	<vehicle depart="432" departPos="0.0" departSpeed="15.30" id="0176" type="human">
		<route edges="-238059324 -383432312" />
	</vehicle>
	<vehicle depart="434" departPos="0.0" departSpeed="7.51" id="0177" type="human">
		<route edges="-238059324 -383432312" />
	</vehicle>
	<vehicle depart="436" departPos="0.0" departSpeed="2.29" id="0178" type="human">
		<route edges="-238059324 -309265401" />
	</vehicle>
	<vehicle depart="437" departPos="0.0" departSpeed="15.54" id="0179" type="human">
		<route edges="-238059324 -309265401" />
	</vehicle>
	<vehicle depart="439" departPos="0.0" departSpeed="16.15" id="0180" type="human">
		<route edges="-238059324 -383432312" />
	</vehicle>
	<vehicle depart="441" departPos="0.0" departSpeed="21.52" id="0181" type="human">
		<route edges="-238059324 -309265401" />
	</vehicle>
	<vehicle depart="442" departPos="0.0" departSpeed="21.05" id="0182" type="human">
		<route edges="-238059324 -383432312" />
	</vehicle>
	<vehicle depart="445" departPos="0.0" departSpeed="1.49" id="0183" type="human">
		<route edges="-238059324 -309265401" />
	</vehicle>
	<vehicle depart="446" departPos="0.0" departSpeed="5.53" id="0184" type="human">
		<route edges="-238059324 -383432312" />
	</vehicle>
	<vehicle depart="449" departPos="0.0" departSpeed="19.62" id="0185" type="human">
		<route edges="-238059324 -383432312" />
	</vehicle>
	<vehicle depart="451" departPos="0.0" departSpeed="11.75" id="0186" type="human">
		<route edges="-238059324 -383432312" />
	</vehicle>
	<vehicle depart="454" departPos="0.0" departSpeed="5.92" id="0187" type="human">
		<route edges="-238059324 -383432312" />
	</vehicle>
	<vehicle depart="456" departPos="0.0" departSpeed="7.72" id="0188" type="human">
		<route edges="-238059324 -383432312" />
	</vehicle>
	<vehicle depart="458" departPos="0.0" departSpeed="19.00" id="0189" type="human">
		<route edges="-238059324 -383432312" />
	</vehicle>
	<vehicle depart="462" departPos="0.0" departSpeed="16.94" id="0190" type="human">
		<route edges="-238059324 -383432312" />
	</vehicle>
	<vehicle depart="467" departPos="0.0" departSpeed="17.03" id="0191" type="human">
		<route edges="-238059324 -309265401" />
	</vehicle>
	<vehicle depart="471" departPos="0.0" departSpeed="8.48" id="0192" type="human">
		<route edges="-238059324 -383432312" />
	</vehicle>
	<vehicle depart="474" departPos="0.0" departSpeed="21.32" id="0193" type="human">
		<route edges="-238059324 -383432312" />
	</vehicle>
	<vehicle depart="475" departPos="0.0" departSpeed="8.58" id="0194" type="human">
		<route edges="-238059324 -309265401" />
	</vehicle>
	<vehicle depart="479" departPos="0.0" departSpeed="18.42" id="0195" type="human">
		<route edges="-238059324 -309265401" />
	</vehicle>
	<vehicle depart="481" departPos="0.0" departSpeed="13.87" id="0196" type="human">
		<route edges="-238059324 -309265401" />
	</vehicle>
	<vehicle depart="483" departPos="0.0" departSpeed="16.46" id="0197" type="human">
		<route edges="-238059324 -309265401" />
	</vehicle>
	<vehicle depart="484" departPos="0.0" departSpeed="6.38" id="0198" type="human">
		<route edges="-238059324 -309265401" />
	</vehicle>
	<vehicle depart="488" departPos="0.0" departSpeed="19.62" id="0199" type="human">
		<route edges="-238059324 -309265401" />
	</vehicle>
	<vehicle depart="495" departPos="0.0" departSpeed="22.05" id="0200" type="human">
		<route edges="-238059324 -383432312" />
	</vehicle>
	<vehicle depart="497" departPos="0.0" departSpeed="20.52" id="0201" type="human">
		<route edges="-238059324 -383432312" />
	</vehicle>
	<vehicle depart="501" departPos="0.0" departSpeed="22.07" id="0202" type="human">
		<route edges="-238059324 -383432312" />
	</vehicle>
	<vehicle depart="506" departPos="0.0" departSpeed="19.92" id="0203" type="human">
		<route edges="-238059324 -309265401" />
	</vehicle>
	<vehicle depart="508" departPos="0.0" departSpeed="3.83" id="0204" type="human">
		<route edges="-238059324 -309265401" />
	</vehicle>
	<vehicle depart="509" departPos="0.0" departSpeed="6.36" id="0205" type="human">
		<route edges="-238059324 -383432312" />
	</vehicle>
	<vehicle depart="510" departPos="0.0" departSpeed="2.08" id="0206" type="human">
		<route edges="-238059324 -383432312" />
	</vehicle>
	<vehicle depart="516" departPos="0.0" departSpeed="9.92" id="0207" type="human">
		<route edges="-238059324 -383432312" />
	</vehicle>
	<vehicle depart="517" departPos="0.0" departSpeed="14.77" id="0208" type="human">
		<route edges="-238059324 -383432312" />
	</vehicle>
	<vehicle depart="518" departPos="0.0" departSpeed="4.79" id="0209" type="human">
		<route edges="-238059324 -309265401" />
	</vehicle>
	<vehicle depart="519" departPos="0.0" departSpeed="21.66" id="0210" type="human">
		<route edges="-238059324 -383432312" />
	</vehicle>
	<vehicle depart="520" departPos="0.0" departSpeed="13.33" id="0211" type="human">
		<route edges="-238059324 -383432312" />
	</vehicle>
	<vehicle depart="522" departPos="0.0" departSpeed="6.38" id="0212" type="human">
		<route edges="-238059324 -309265401" />
	</vehicle>
	<vehicle depart="526" departPos="0.0" departSpeed="6.45" id="0213" type="human">
		<route edges="-238059324 -309265401" />
	</vehicle>
	<vehicle depart="528" departPos="0.0" departSpeed="17.62" id="0214" type="human">
		<route edges="-238059324 -383432312" />
	</vehicle>
	<vehicle depart="530" departPos="0.0" departSpeed="12.60" id="0215" type="human">
		<route edges="-238059324 -309265401" />
	</vehicle>
	<vehicle depart="532" departPos="0.0" departSpeed="20.19" id="0216" type="human">
		<route edges="-238059324 -383432312" />
	</vehicle>
	<vehicle depart="536" departPos="0.0" departSpeed="20.01" id="0217" type="human">
		<route edges="-238059324 -309265401" />
	</vehicle>
	<vehicle depart="537" departPos="0.0" departSpeed="13.85" id="0218" type="human">
		<route edges="-238059324 -309265401" />
	</vehicle>
	<vehicle depart="539" departPos="0.0" departSpeed="10.66" id="0219" type="human">
		<route edges="-238059324 -383432312" />
	</vehicle>