<routes xmlns:xsi="http://www.w3.org/2001/XMLSchema-instance" xsi:noNamespaceSchemaLocation="http://sumo.dlr.de/xsd/routes_file.xsd">
	<vehicle depart="21" departPos="0.0" departSpeed="20.99" id="0001" type="human">
		<route edges="-238059324 -383432312" />
	</vehicle>
	<vehicle depart="23" departPos="0.0" departSpeed="4.81" id="0002" type="human">
		<route edges="-238059324 -309265401" />
	</vehicle>
	<vehicle depart="74" departPos="0.0" departSpeed="14.57" id="0003" type="human">
		<route edges="-238059324 -309265401" />
	</vehicle>
	<vehicle depart="75" departPos="0.0" departSpeed="9.56" id="0004" type="human">
		<route edges="-238059324 -383432312" />
	</vehicle>
	<vehicle depart="87" departPos="0.0" departSpeed="6.47" id="0005" type="human">
		<route edges="-238059324 -309265401" />
	</vehicle>
	<vehicle depart="115" departPos="0.0" departSpeed="11.08" id="0006" type="human">
		<route edges="-238059324 -383432312" />
	</vehicle>
	<vehicle depart="117" departPos="0.0" departSpeed="9.36" id="0007" type="human">
		<route edges="-238059324 -383432312" />
	</vehicle>
	<vehicle depart="143" departPos="0.0" departSpeed="22.02" id="0008" type="human">
		<route edges="-238059324 -309265401" />
	</vehicle>
	<vehicle depart="150" departPos="0.0" departSpeed="16.84" id="0009" type="human">
		<route edges="-238059324 -383432312" />
	</vehicle>
	<vehicle depart="169" departPos="0.0" departSpeed="8.04" id="0010" type="human">
		<route edges="-238059324 -309265401" />
	</vehicle>
	<vehicle depart="180" departPos="0.0" departSpeed="18.48" id="0011" type="human">
		<route edges="-238059324 -383432312" />
	</vehicle>
	<vehicle depart="199" departPos="0.0" departSpeed="17.51" id="0012" type="human">
		<route edges="-238059324 -383432312" />
	</vehicle>
	<vehicle depart="210" departPos="0.0" departSpeed="17.19" id="0013" type="human">
		<route edges="-238059324 -309265401" />
	</vehicle>
	<vehicle depart="212" departPos="0.0" departSpeed="11.53" id="0014" type="human">
		<route edges="-238059324 -383432312" />
	</vehicle>
	<vehicle depart="217" departPos="0.0" departSpeed="10.51" id="0015" type="human">
		<route edges="-238059324 -383432312" />
	</vehicle>
	<vehicle depart="237" departPos="0.0" departSpeed="4.33" id="0016" type="human">
		<route edges="-238059324 -383432312" />
	</vehicle>
	<vehicle depart="269" departPos="0.0" departSpeed="16.41" id="0017" type="human">
		<route edges="-238059324 -309265401" />
	</vehicle>
	<vehicle depart="285" departPos="0.0" departSpeed="16.70" id="0018" type="human">
		<route edges="-238059324 -383432312" />
	</vehicle>
	<vehicle depart="304" departPos="0.0" departSpeed="18.08" id="0019" type="human">
		<route edges="-238059324 -309265401" />
	</vehicle>
	<vehicle depart="311" departPos="0.0" departSpeed="9.31" id="0020" type="human">
		<route edges="-238059324 -383432312" />
	</vehicle>
	<vehicle depart="318" departPos="0.0" departSpeed="11.64" id="0021" type="human">
		<route edges="-238059324 -309265401" />
	</vehicle>
	<vehicle depart="326" departPos="0.0" departSpeed="2.40" id="0022" type="human">
		<route edges="-238059324 -309265401" />
	</vehicle>
	<vehicle depart="328" departPos="0.0" departSpeed="20.48" id="0023" type="human">
		<route edges="-238059324 -383432312" />
	</vehicle>
	<vehicle depart="337" departPos="0.0" departSpeed="6.08" id="0024" type="human">
		<route edges="-238059324 -383432312" />
	</vehicle>
	<vehicle depart="340" departPos="0.0" departSpeed="22.11" id="0025" type="human">
		<route edges="-238059324 -383432312" />
	</vehicle>
	<vehicle depart="342" departPos="0.0" departSpeed="2.27" id="0026" type="human">
		<route edges="-238059324 -383432312" />
	</vehicle>
	<vehicle depart="368" departPos="0.0" departSpeed="19.00" id="0027" type="human">
		<route edges="-238059324 -383432312" />
	</vehicle>
	<vehicle depart="392" departPos="0.0" departSpeed="17.82" id="0028" type="human">
		<route edges="-238059324 -383432312" />
	</vehicle>
	<vehicle depart="407" departPos="0.0" departSpeed="0.43" id="0029" type="human">
		<route edges="-238059324 -383432312" />
	</vehicle>
	<vehicle depart="410" departPos="0.0" departSpeed="2.44" id="0030" type="human">
		<route edges="-238059324 -309265401" />
	</vehicle>
	<vehicle depart="414" departPos="0.0" departSpeed="2.90" id="0031" type="human">
		<route edges="-238059324 -309265401" />
	</vehicle>
	<vehicle depart="419" departPos="0.0" departSpeed="21.49" id="0032" type="human">
		<route edges="-238059324 -309265401" />
	</vehicle>
	<vehicle depart="429" departPos="0.0" departSpeed="5.43" id="0033" type="human">
		<route edges="-238059324 -383432312" />
	</vehicle>
	<vehicle depart="430" departPos="0.0" departSpeed="15.61" id="0034" type="human">
		<route edges="-238059324 -309265401" />
	</vehicle>
	<vehicle depart="436" departPos="0.0" departSpeed="20.41" id="0035" type="human">
		<route edges="-238059324 -309265401" />
	</vehicle>
	<vehicle depart="441" departPos="0.0" departSpeed="7.18" id="0036" type="human">
		<route edges="-238059324 -383432312" />
	</vehicle>
	<vehicle depart="461" departPos="0.0" departSpeed="13.11" id="0037" type="human">
		<route edges="-238059324 -309265401" />
	</vehicle>
	<vehicle depart="470" departPos="0.0" departSpeed="16.23" id="0038" type="human">
		<route edges="-238059324 -309265401" />
	</vehicle>
	<vehicle depart="471" departPos="0.0" departSpeed="20.37" id="0039" type="human">
		<route edges="-238059324 -309265401" />
	</vehicle>
	<vehicle depart="495" departPos="0.0" departSpeed="15.14" id="0040" type="human">
		<route edges="-238059324 -309265401" />
	</vehicle>
	<vehicle depart="502" departPos="0.0" departSpeed="13.25" id="0041" type="human">
		<route edges="-238059324 -309265401" />
	</vehicle>
	<vehicle depart="503" departPos="0.0" departSpeed="8.39" id="0042" type="human">
		<route edges="-238059324 -309265401" />
	</vehicle>
	<vehicle depart="507" departPos="0.0" departSpeed="18.67" id="0043" type="human">
		<route edges="-238059324 -309265401" />
	</vehicle>
	<vehicle depart="538" departPos="0.0" departSpeed="4.09" id="0044" type="human">
		<route edges="-238059324 -383432312" />
	</vehicle>
	<vehicle depart="540" departPos="0.0" departSpeed="11.31" id="0045" type="human">
		<route edges="-238059324 -383432312" />
	</vehicle>
	<vehicle depart="544" departPos="0.0" departSpeed="4.45" id="0046" type="human">
		<route edges="-238059324 -383432312" />
	</vehicle>
	<vehicle depart="563" departPos="0.0" departSpeed="21.78" id="0047" type="human">
		<route edges="-238059324 -309265401" />
	</vehicle>
	<vehicle depart="571" departPos="0.0" departSpeed="9.50" id="0048" type="human">
		<route edges="-238059324 -309265401" />
	</vehicle>
	<vehicle depart="577" departPos="0.0" departSpeed="19.48" id="0049" type="human">
		<route edges="-238059324 -383432312" />
	</vehicle>
	<vehicle depart="599" departPos="0.0" departSpeed="1.74" id="0050" type="human">
		<route edges="-238059324 -383432312" />
	</vehicle>
	<vehicle depart="609" departPos="0.0" departSpeed="21.97" id="0051" type="human">
		<route edges="-238059324 -383432312" />
	</vehicle>
	<vehicle depart="610" departPos="0.0" departSpeed="8.35" id="0052" type="human">
		<route edges="-238059324 -383432312" />
	</vehicle>
	<vehicle depart="628" departPos="0.0" departSpeed="18.12" id="0053" type="human">
		<route edges="-238059324 -309265401" />
	</vehicle>
	<vehicle depart="633" departPos="0.0" departSpeed="4.19" id="0054" type="human">
		<route edges="-238059324 -383432312" />
	</vehicle>
	<vehicle depart="650" departPos="0.0" departSpeed="22.13" id="0055" type="human">
		<route edges="-238059324 -383432312" />
	</vehicle>
	<vehicle depart="662" departPos="0.0" departSpeed="0.35" id="0056" type="human">
		<route edges="-238059324 -309265401" />
	</vehicle>
	<vehicle depart="667" departPos="0.0" departSpeed="15.86" id="0057" type="human">
		<route edges="-238059324 -309265401" />
	</vehicle>
	<vehicle depart="690" departPos="0.0" departSpeed="7.13" id="0058" type="human">
		<route edges="-238059324 -383432312" />
	</vehicle>
	<vehicle depart="697" departPos="0.0" departSpeed="21.67" id="0059" type="human">
		<route edges="-238059324 -309265401" />
	</vehicle>
	<vehicle depart="730" departPos="0.0" departSpeed="19.42" id="0060" type="human">
		<route edges="-238059324 -383432312" />
	</vehicle>
	<vehicle depart="734" departPos="0.0" departSpeed="19.50" id="0061" type="human">
		<route edges="-238059324 -309265401" />
	</vehicle>
	<vehicle depart="739" departPos="0.0" departSpeed="1.92" id="0062" type="human">
		<route edges="-238059324 -383432312" />
	</vehicle>
	<vehicle depart="747" departPos="0.0" departSpeed="1.58" id="0063" type="human">
		<route edges="-238059324 -309265401" />
	</vehicle>
	<vehicle depart="753" departPos="0.0" departSpeed="0.88" id="0064" type="human">
		<route edges="-238059324 -309265401" />
	</vehicle>
	<vehicle depart="763" departPos="0.0" departSpeed="21.15" id="0065" type="human">
		<route edges="-238059324 -383432312" />
	</vehicle>
	<vehicle depart="764" departPos="0.0" departSpeed="6.03" id="0066" type="human">
		<route edges="-238059324 -309265401" />
	</vehicle>
	<vehicle depart="778" departPos="0.0" departSpeed="8.85" id="0067" type="human">
		<route edges="-238059324 -309265401" />
	</vehicle>
	<vehicle depart="779" departPos="0.0" departSpeed="10.48" id="0068" type="human">
		<route edges="-238059324 -383432312" />
	</vehicle>
	<vehicle depart="801" departPos="0.0" departSpeed="4.28" id="0069" type="human">
		<route edges="-238059324 -383432312" />
	</vehicle>
	<vehicle depart="802" departPos="0.0" departSpeed="3.20" id="0070" type="human">
		<route edges="-238059324 -383432312" />
	</vehicle>
	<vehicle depart="834" departPos="0.0" departSpeed="21.81" id="0071" type="human">
		<route edges="-238059324 -309265401" />
	</vehicle>
	<vehicle depart="839" departPos="0.0" departSpeed="19.09" id="0072" type="human">
		<route edges="-238059324 -383432312" />
	</vehicle>
	<vehicle depart="844" departPos="0.0" departSpeed="19.71" id="0073" type="human">
		<route edges="-238059324 -383432312" />
	</vehicle>
	<vehicle depart="850" departPos="0.0" departSpeed="7.42" id="0074" type="human">
		<route edges="-238059324 -383432312" />
	</vehicle>
	<vehicle depart="851" departPos="0.0" departSpeed="18.40" id="0075" type="human">
		<route edges="-238059324 -309265401" />
	</vehicle>
	<vehicle depart="855" departPos="0.0" departSpeed="15.11" id="0076" type="human">
		<route edges="-238059324 -383432312" />
	</vehicle>
	<vehicle depart="856" departPos="0.0" departSpeed="14.72" id="0077" type="human">
		<route edges="-238059324 -309265401" />
	</vehicle>
	<vehicle depart="860" departPos="0.0" departSpeed="17.99" id="0078" type="human">
		<route edges="-238059324 -383432312" />
	</vehicle>
	<vehicle depart="861" departPos="0.0" departSpeed="12.59" id="0079" type="human">
		<route edges="-238059324 -309265401" />
	</vehicle>
	<vehicle depart="871" departPos="0.0" departSpeed="16.18" id="0080" type="human">
		<route edges="-238059324 -309265401" />
	</vehicle>
	<vehicle depart="878" departPos="0.0" departSpeed="5.76" id="0081" type="human">
		<route edges="-238059324 -309265401" />
	</vehicle>
	<vehicle depart="879" departPos="0.0" departSpeed="1.17" id="0082" type="human">
		<route edges="-238059324 -383432312" />
	</vehicle>
	<vehicle depart="884" departPos="0.0" departSpeed="12.80" id="0083" type="human">
		<route edges="-238059324 -309265401" />
	</vehicle>
	<vehicle depart="898" departPos="0.0" departSpeed="21.00" id="0084" type="human">
		<route edges="-238059324 -309265401" />
	</vehicle>
	<vehicle depart="905" departPos="0.0" departSpeed="12.60" id="0085" type="human">
		<route edges="-238059324 -309265401" />
	</vehicle>
	<vehicle depart="912" departPos="0.0" departSpeed="4.49" id="0086" type="human">
		<route edges="-238059324 -383432312" />
	</vehicle>
	<vehicle depart="932" departPos="0.0" departSpeed="3.26" id="0087" type="human">
		<route edges="-238059324 -309265401" />
	</vehicle>
	<vehicle depart="934" departPos="0.0" departSpeed="13.64" id="0088" type="human">
		<route edges="-238059324 -309265401" />
	</vehicle>
	<vehicle depart="953" departPos="0.0" departSpeed="20.04" id="0089" type="human">
		<route edges="-238059324 -383432312" />
	</vehicle>
	<vehicle depart="959" departPos="0.0" departSpeed="17.48" id="0090" type="human">
		<route edges="-238059324 -309265401" />
	</vehicle>
	<vehicle depart="968" departPos="0.0" departSpeed="3.88" id="0091" type="human">
		<route edges="-238059324 -309265401" />
	</vehicle>
	<vehicle depart="972" departPos="0.0" departSpeed="13.74" id="0092" type="human">
		<route edges="-238059324 -383432312" />
	</vehicle>
	<vehicle depart="975" departPos="0.0" departSpeed="10.00" id="0093" type="human">
		<route edges="-238059324 -309265401" />
	</vehicle>
	<vehicle depart="980" departPos="0.0" departSpeed="11.16" id="0094" type="human">
		<route edges="-238059324 -309265401" />
	</vehicle>
	<vehicle depart="990" departPos="0.0" departSpeed="1.89" id="0095" type="human">
		<route edges="-238059324 -309265401" />
	</vehicle>
	<vehicle depart="997" departPos="0.0" departSpeed="2.97" id="0096" type="human">
		<route edges="-238059324 -383432312" />
	</vehicle>
	<vehicle depart="1006" departPos="0.0" departSpeed="21.35" id="0097" type="human">
		<route edges="-238059324 -309265401" />
	</vehicle>
	<vehicle depart="1007" departPos="0.0" departSpeed="13.63" id="0098" type="human">
		<route edges="-238059324 -309265401" />
	</vehicle>
	<vehicle depart="1010" departPos="0.0" departSpeed="6.55" id="0099" type="human">
		<route edges="-238059324 -309265401" />
	</vehicle>
	<vehicle depart="1028" departPos="0.0" departSpeed="15.95" id="0100" type="human">
		<route edges="-238059324 -383432312" />
	</vehicle>
	<vehicle depart="1046" departPos="0.0" departSpeed="21.52" id="0101" type="human">
		<route edges="-238059324 -383432312" />
	</vehicle>
	<vehicle depart="1063" departPos="0.0" departSpeed="19.79" id="0102" type="human">
		<route edges="-238059324 -383432312" />
	</vehicle>
	<vehicle depart="1064" departPos="0.0" departSpeed="13.56" id="0103" type="human">
		<route edges="-238059324 -383432312" />
	</vehicle>
	<vehicle depart="1068" departPos="0.0" departSpeed="1.08" id="0104" type="human">
		<route edges="-238059324 -383432312" />
	</vehicle>
	<vehicle depart="1073" departPos="0.0" departSpeed="11.52" id="0105" type="human">
		<route edges="-238059324 -383432312" />
	</vehicle>
	<vehicle depart="1075" departPos="0.0" departSpeed="10.65" id="0106" type="human">
		<route edges="-238059324 -309265401" />
	</vehicle>
	<vehicle depart="1081" departPos="0.0" departSpeed="14.29" id="0107" type="human">
		<route edges="-238059324 -309265401" />
	</vehicle>
	<vehicle depart="1087" departPos="0.0" departSpeed="0.12" id="0108" type="human">
		<route edges="-238059324 -309265401" />
	</vehicle>
	<vehicle depart="1090" departPos="0.0" departSpeed="14.57" id="0109" type="human">
		<route edges="-238059324 -383432312" />
	</vehicle>
	<vehicle depart="1101" departPos="0.0" departSpeed="21.38" id="0110" type="human">
		<route edges="-238059324 -383432312" />
	</vehicle>
	<vehicle depart="1102" departPos="0.0" departSpeed="2.74" id="0111" type="human">
		<route edges="-238059324 -383432312" />
	</vehicle>
	<vehicle depart="1103" departPos="0.0" departSpeed="3.11" id="0112" type="human">
		<route edges="-238059324 -309265401" />
	</vehicle>
	<vehicle depart="1120" departPos="0.0" departSpeed="11.17" id="0113" type="human">
		<route edges="-238059324 -309265401" />
	</vehicle>
	<vehicle depart="1133" departPos="0.0" departSpeed="11.59" id="0114" type="human">
		<route edges="-238059324 -383432312" />
	</vehicle>
	<vehicle depart="1141" departPos="0.0" departSpeed="12.21" id="0115" type="human">
		<route edges="-238059324 -309265401" />
	</vehicle>
	<vehicle depart="1142" departPos="0.0" departSpeed="12.90" id="0116" type="human">
		<route edges="-238059324 -383432312" />
	</vehicle>
	<vehicle depart="1150" departPos="0.0" departSpeed="8.63" id="0117" type="human">
		<route edges="-238059324 -309265401" />
	</vehicle>
	<vehicle depart="1152" departPos="0.0" departSpeed="7.98" id="0118" type="human">
		<route edges="-238059324 -309265401" />
	</vehicle>
	<vehicle depart="1155" departPos="0.0" departSpeed="15.55" id="0119" type="human">
		<route edges="-238059324 -383432312" />
	</vehicle>
	<vehicle depart="1158" departPos="0.0" departSpeed="3.57" id="0120" type="human">
		<route edges="-238059324 -309265401" />
	</vehicle>
	<vehicle depart="1161" departPos="0.0" departSpeed="1.37" id="0121" type="human">
		<route edges="-238059324 -309265401" />
	</vehicle>
	<vehicle depart="1167" departPos="0.0" departSpeed="6.01" id="0122" type="human">
		<route edges="-238059324 -383432312" />
	</vehicle>
	<vehicle depart="1169" departPos="0.0" departSpeed="1.88" id="0123" type="human">
		<route edges="-238059324 -383432312" />
	</vehicle>
	<vehicle depart="1176" departPos="0.0" departSpeed="15.04" id="0124" type="human">
		<route edges="-238059324 -383432312" />
	</vehicle>
	<vehicle depart="1182" departPos="0.0" departSpeed="14.24" id="0125" type="human">
		<route edges="-238059324 -383432312" />
	</vehicle>
	<vehicle depart="1194" departPos="0.0" departSpeed="19.68" id="0126" type="human">
		<route edges="-238059324 -309265401" />
	</vehicle>
	<vehicle depart="1203" departPos="0.0" departSpeed="19.95" id="0127" type="human">
		<route edges="-238059324 -383432312" />
	</vehicle>
	<vehicle depart="1218" departPos="0.0" departSpeed="9.92" id="0128" type="human">
		<route edges="-238059324 -309265401" />
	</vehicle>
	<vehicle depart="1223" departPos="0.0" departSpeed="15.09" id="0129" type="human">
		<route edges="-238059324 -383432312" />
	</vehicle>
	<vehicle depart="1225" departPos="0.0" departSpeed="15.14" id="0130" type="human">
		<route edges="-238059324 -383432312" />
	</vehicle>
	<vehicle depart="1249" departPos="0.0" departSpeed="19.60" id="0131" type="human">
		<route edges="-238059324 -383432312" />
	</vehicle>
	<vehicle depart="1254" departPos="0.0" departSpeed="1.42" id="0132" type="human">
		<route edges="-238059324 -383432312" />
	</vehicle>
	<vehicle depart="1267" departPos="0.0" departSpeed="15.09" id="0133" type="human">
		<route edges="-238059324 -309265401" />
	</vehicle>
	<vehicle depart="1279" departPos="0.0" departSpeed="18.51" id="0134" type="human">
		<route edges="-238059324 -383432312" />
	</vehicle>
	<vehicle depart="1281" departPos="0.0" departSpeed="22.20" id="0135" type="human">
		<route edges="-238059324 -309265401" />
	</vehicle>
	<vehicle depart="1289" departPos="0.0" departSpeed="0.21" id="0136" type="human">
		<route edges="-238059324 -383432312" />
	</vehicle>
	<vehicle depart="1306" departPos="0.0" departSpeed="10.87" id="0137" type="human">
		<route edges="-238059324 -309265401" />
	</vehicle>
	<vehicle depart="1308" departPos="0.0" departSpeed="19.64" id="0138" type="human">
		<route edges="-238059324 -383432312" />
	</vehicle>
	<vehicle depart="1328" departPos="0.0" departSpeed="3.52" id="0139" type="human">
		<route edges="-238059324 -383432312" />
	</vehicle>
	<vehicle depart="1339" departPos="0.0" departSpeed="7.70" id="0140" type="human">
		<route edges="-238059324 -383432312" />
	</vehicle>
	<vehicle depart="1357" departPos="0.0" departSpeed="6.99" id="0141" type="human">
		<route edges="-238059324 -309265401" />
	</vehicle>
	<vehicle depart="1366" departPos="0.0" departSpeed="17.60" id="0142" type="human">
		<route edges="-238059324 -383432312" />
	</vehicle>
	<vehicle depart="1385" departPos="0.0" departSpeed="16.84" id="0143" type="human">
		<route edges="-238059324 -383432312" />
	</vehicle>
	<vehicle depart="1392" departPos="0.0" departSpeed="17.91" id="0144" type="human">
		<route edges="-238059324 -383432312" />
	</vehicle>
	<vehicle depart="1395" departPos="0.0" departSpeed="14.46" id="0145" type="human">
		<route edges="-238059324 -309265401" />
	</vehicle>
	<vehicle depart="1403" departPos="0.0" departSpeed="0.78" id="0146" type="human">
		<route edges="-238059324 -383432312" />
	</vehicle>
	<vehicle depart="1410" departPos="0.0" departSpeed="20.32" id="0147" type="human">
		<route edges="-238059324 -383432312" />
	</vehicle>
	<vehicle depart="1419" departPos="0.0" departSpeed="13.60" id="0148" type="human">
		<route edges="-238059324 -309265401" />
	</vehicle>
	<vehicle depart="1420" departPos="0.0" departSpeed="21.98" id="0149" type="human">
		<route edges="-238059324 -383432312" />
	</vehicle>
	<vehicle depart="1432" departPos="0.0" departSpeed="5.43" id="0150" type="human">
		<route edges="-238059324 -383432312" />
	</vehicle>
	<vehicle depart="1461" departPos="0.0" departSpeed="13.59" id="0151" type="human">
		<route edges="-238059324 -309265401" />
	</vehicle>
	<vehicle depart="1464" departPos="0.0" departSpeed="19.22" id="0152" type="human">
		<route edges="-238059324 -383432312" />
	</vehicle>
	<vehicle depart="1479" departPos="0.0" departSpeed="9.82" id="0153" type="human">
		<route edges="-238059324 -383432312" />
	</vehicle>
	<vehicle depart="1480" departPos="0.0" departSpeed="3.68" id="0154" type="human">
		<route edges="-238059324 -383432312" />
	</vehicle>
	<vehicle depart="1481" departPos="0.0" departSpeed="21.73" id="0155" type="human">
		<route edges="-238059324 -383432312" />
	</vehicle>
	<vehicle depart="1482" departPos="0.0" departSpeed="11.80" id="0156" type="human">
		<route edges="-238059324 -309265401" />
	</vehicle>
	<vehicle depart="1492" departPos="0.0" departSpeed="10.06" id="0157" type="human">
		<route edges="-238059324 -309265401" />
	</vehicle>
	<vehicle depart="1497" departPos="0.0" departSpeed="1.21" id="0158" type="human">
		<route edges="-238059324 -383432312" />
	</vehicle>
	<vehicle depart="1501" departPos="0.0" departSpeed="10.41" id="0159" type="human">
		<route edges="-238059324 -309265401" />
	</vehicle>
	<vehicle depart="1507" departPos="0.0" departSpeed="13.89" id="0160" type="human">
		<route edges="-238059324 -383432312" />
	</vehicle>
	<vehicle depart="1522" departPos="0.0" departSpeed="21.56" id="0161" type="human">
		<route edges="-238059324 -383432312" />
	</vehicle>
	<vehicle depart="1526" departPos="0.0" departSpeed="15.14" id="0162" type="human">
		<route edges="-238059324 -383432312" />
	</vehicle>
	<vehicle depart="1532" departPos="0.0" departSpeed="4.15" id="0163" type="human">
		<route edges="-238059324 -383432312" />
	</vehicle>
	<vehicle depart="1548" departPos="0.0" departSpeed="4.84" id="0164" type="human">
		<route edges="-238059324 -309265401" />
	</vehicle>
	<vehicle depart="1552" departPos="0.0" departSpeed="3.77" id="0165" type="human">
		<route edges="-238059324 -309265401" />
	</vehicle>
	<vehicle depart="1579" departPos="0.0" departSpeed="21.01" id="0166" type="human">
		<route edges="-238059324 -383432312" />
	</vehicle>
	<vehicle depart="1583" departPos="0.0" departSpeed="11.64" id="0167" type="human">
		<route edges="-238059324 -383432312" />
	</vehicle>
	<vehicle depart="1591" departPos="0.0" departSpeed="6.30" id="0168" type="human">
		<route edges="-238059324 -383432312" />
	</vehicle>
	<vehicle depart="1595" departPos="0.0" departSpeed="4.15" id="0169" type="human">
		<route edges="-238059324 -383432312" />
	</vehicle>
	<vehicle depart="1596" departPos="0.0" departSpeed="15.51" id="0170" type="human">
		<route edges="-238059324 -309265401" />
	</vehicle>
	<vehicle depart="1597" departPos="0.0" departSpeed="17.14" id="0171" type="human">
		<route edges="-238059324 -309265401" />
	</vehicle>
	<vehicle depart="1609" departPos="0.0" departSpeed="13.77" id="0172" type="human">
		<route edges="-238059324 -383432312" />
	</vehicle>
	<vehicle depart="1611" departPos="0.0" departSpeed="9.39" id="0173" type="human">
		<route edges="-238059324 -383432312" />
	</vehicle>
	<vehicle depart="1624" departPos="0.0" departSpeed="14.18" id="0174" type="human">
		<route edges="-238059324 -309265401" />
	</vehicle>
	<vehicle depart="1636" departPos="0.0" departSpeed="4.79" id="0175" type="human">
		<route edges="-238059324 -383432312" />
	</vehicle>
	<vehicle depart="1650" departPos="0.0" departSpeed="20.08" id="0176" type="human">
		<route edges="-238059324 -383432312" />
	</vehicle>
	<vehicle depart="1674" departPos="0.0" departSpeed="17.70" id="0177" type="human">
		<route edges="-238059324 -383432312" />
	</vehicle>
	<vehicle depart="1687" departPos="0.0" departSpeed="2.96" id="0178" type="human">
		<route edges="-238059324 -309265401" />
	</vehicle>
	<vehicle depart="1708" departPos="0.0" departSpeed="8.69" id="0179" type="human">
		<route edges="-238059324 -309265401" />
	</vehicle>
	<vehicle depart="1722" departPos="0.0" departSpeed="5.80" id="0180" type="human">
		<route edges="-238059324 -383432312" />
	</vehicle>
	<vehicle depart="1726" departPos="0.0" departSpeed="14.26" id="0181" type="human">
		<route edges="-238059324 -383432312" />
	</vehicle>
	<vehicle depart="1730" departPos="0.0" departSpeed="0.69" id="0182" type="human">
		<route edges="-238059324 -309265401" />
	</vehicle>
	<vehicle depart="1743" departPos="0.0" departSpeed="16.89" id="0183" type="human">
		<route edges="-238059324 -309265401" />
	</vehicle>
	<vehicle depart="1752" departPos="0.0" departSpeed="8.43" id="0184" type="human">
		<route edges="-238059324 -383432312" />
	</vehicle>
	<vehicle depart="1753" departPos="0.0" departSpeed="11.34" id="0185" type="human">
		<route edges="-238059324 -309265401" />
	</vehicle>
	<vehicle depart="1758" departPos="0.0" departSpeed="7.83" id="0186" type="human">
		<route edges="-238059324 -383432312" />
	</vehicle>
	<vehicle depart="1764" departPos="0.0" departSpeed="17.73" id="0187" type="human">
		<route edges="-238059324 -309265401" />
	</vehicle>
	<vehicle depart="1775" departPos="0.0" departSpeed="10.95" id="0188" type="human">
		<route edges="-238059324 -383432312" />
	</vehicle>
	<vehicle depart="1777" departPos="0.0" departSpeed="6.29" id="0189" type="human">
		<route edges="-238059324 -309265401" />
	</vehicle>
	<vehicle depart="1780" departPos="0.0" departSpeed="14.56" id="0190" type="human">
		<route edges="-238059324 -309265401" />
	</vehicle>
	<vehicle depart="1782" departPos="0.0" departSpeed="21.31" id="0191" type="human">
		<route edges="-238059324 -309265401" />
	</vehicle>
	<vehicle depart="1820" departPos="0.0" departSpeed="16.16" id="0192" type="human">
		<route edges="-238059324 -383432312" />
	</vehicle>
	<vehicle depart="1825" departPos="0.0" departSpeed="5.50" id="0193" type="human">
		<route edges="-238059324 -383432312" />
	</vehicle>
	<vehicle depart="1838" departPos="0.0" departSpeed="8.72" id="0194" type="human">
		<route edges="-238059324 -383432312" />
	</vehicle>
	<vehicle depart="1839" departPos="0.0" departSpeed="1.32" id="0195" type="human">
		<route edges="-238059324 -383432312" />
	</vehicle>
	<vehicle depart="1843" departPos="0.0" departSpeed="7.23" id="0196" type="human">
		<route edges="-238059324 -383432312" />
	</vehicle>
	<vehicle depart="1866" departPos="0.0" departSpeed="13.19" id="0197" type="human">
		<route edges="-238059324 -309265401" />
	</vehicle>
	<vehicle depart="1869" departPos="0.0" departSpeed="14.88" id="0198" type="human">
		<route edges="-238059324 -383432312" />
	</vehicle>
	<vehicle depart="1878" departPos="0.0" departSpeed="21.30" id="0199" type="human">
		<route edges="-238059324 -309265401" />
	</vehicle>
	<vehicle depart="1883" departPos="0.0" departSpeed="0.41" id="0200" type="human">
		<route edges="-238059324 -309265401" />
	</vehicle>
	<vehicle depart="1931" departPos="0.0" departSpeed="11.86" id="0201" type="human">
		<route edges="-238059324 -383432312" />
	</vehicle>
	<vehicle depart="1939" departPos="0.0" departSpeed="8.09" id="0202" type="human">
		<route edges="-238059324 -309265401" />
	</vehicle>
	<vehicle depart="1947" departPos="0.0" departSpeed="11.00" id="0203" type="human">
		<route edges="-238059324 -383432312" />
	</vehicle>
	<vehicle depart="1950" departPos="0.0" departSpeed="13.54" id="0204" type="human">
		<route edges="-238059324 -383432312" />
	</vehicle>
	<vehicle depart="1962" departPos="0.0" departSpeed="15.63" id="0205" type="human">
		<route edges="-238059324 -309265401" />
	</vehicle>
	<vehicle depart="1967" departPos="0.0" departSpeed="4.44" id="0206" type="human">
		<route edges="-238059324 -309265401" />
	</vehicle>
	<vehicle depart="1968" departPos="0.0" departSpeed="8.52" id="0207" type="human">
		<route edges="-238059324 -383432312" />
	</vehicle>
	<vehicle depart="1981" departPos="0.0" departSpeed="2.01" id="0208" type="human">
		<route edges="-238059324 -309265401" />
	</vehicle>
	<vehicle depart="1992" departPos="0.0" departSpeed="8.15" id="0209" type="human">
		<route edges="-238059324 -309265401" />
	</vehicle>
	<vehicle depart="1996" departPos="0.0" departSpeed="11.12" id="0210" type="human">
		<route edges="-238059324 -383432312" />
	</vehicle>
	<vehicle depart="2003" departPos="0.0" departSpeed="14.89" id="0211" type="human">
		<route edges="-238059324 -309265401" />
	</vehicle>
	<vehicle depart="2004" departPos="0.0" departSpeed="19.38" id="0212" type="human">
		<route edges="-238059324 -383432312" />
	</vehicle>
	<vehicle depart="2028" departPos="0.0" departSpeed="13.66" id="0213" type="human">
		<route edges="-238059324 -309265401" />
	</vehicle>
	<vehicle depart="2053" departPos="0.0" departSpeed="10.60" id="0214" type="human">
		<route edges="-238059324 -383432312" />
	</vehicle>
	<vehicle depart="2062" departPos="0.0" departSpeed="13.24" id="0215" type="human">
		<route edges="-238059324 -309265401" />
	</vehicle>
	<vehicle depart="2074" departPos="0.0" departSpeed="19.51" id="0216" type="human">
		<route edges="-238059324 -309265401" />
	</vehicle>
	<vehicle depart="2075" departPos="0.0" departSpeed="4.99" id="0217" type="human">
		<route edges="-238059324 -309265401" />
	</vehicle>
	<vehicle depart="2076" departPos="0.0" departSpeed="20.57" id="0218" type="human">