<?xml version="1.0" encoding="UTF-8"?>

<!-- generated on Fri Jan 10 08:15:23 2020 by Eclipse SUMO netedit Version 1.1.0
<configuration xmlns:xsi="http://www.w3.org/2001/XMLSchema-instance" xsi:noNamespaceSchemaLocation="http://sumo.dlr.de/xsd/netconvertConfiguration.xsd">

    <input>
        <sumo-net-file value="data/networks/intersection/intersection.net.xml"/>
    </input>

    <output>
        <output-file value="data/networks/intersection/intersection.net.xml"/>
    </output>

    <processing>
        <geometry.max-grade.fix value="false"/>
        <offset.disable-normalization value="true"/>
        <lefthand value="false"/>
    </processing>

    <junctions>
        <no-turnarounds value="true"/>
        <junctions.corner-detail value="5"/>
        <junctions.limit-turn-speed value="5.5"/>
        <rectangular-lane-cut value="false"/>
    </junctions>

    <pedestrian>
        <walkingareas value="false"/>
    </pedestrian>

</configuration>
-->

<net version="1.1" junctionCornerDetail="5" limitTurnSpeed="5.50" xmlns:xsi="http://www.w3.org/2001/XMLSchema-instance" xsi:noNamespaceSchemaLocation="http://sumo.dlr.de/xsd/net_file.xsd">

    <location netOffset="-487296.98,-4286395.93" convBoundary="0.00,0.00,159.10,109.68" origBoundary="-9.15,38.73,-9.14,38.73" projParameter="+proj=utm +zone=29 +ellps=WGS84 +datum=WGS84 +units=m +no_defs"/>

    <type id="highway.bridleway" priority="1" numLanes="1" speed="2.78" allow="pedestrian" oneway="1" width="2.00"/>
    <type id="highway.bus_guideway" priority="1" numLanes="1" speed="27.78" allow="bus" oneway="1"/>
    <type id="highway.cycleway" priority="1" numLanes="1" speed="8.33" allow="bicycle" oneway="0" width="1.00"/>
    <type id="highway.footway" priority="1" numLanes="1" speed="2.78" allow="pedestrian" oneway="1" width="2.00"/>
    <type id="highway.ford" priority="1" numLanes="1" speed="2.78" allow="army" oneway="0"/>
    <type id="highway.living_street" priority="2" numLanes="1" speed="2.78" disallow="tram rail_urban rail rail_electric ship" oneway="0"/>
    <type id="highway.motorway" priority="14" numLanes="2" speed="39.44" allow="private emergency authority army vip passenger hov taxi bus coach delivery truck trailer motorcycle evehicle custom1 custom2" oneway="1"/>
    <type id="highway.motorway_link" priority="9" numLanes="1" speed="22.22" allow="private emergency authority army vip passenger hov taxi bus coach delivery truck trailer motorcycle evehicle custom1 custom2" oneway="1"/>
    <type id="highway.path" priority="1" numLanes="1" speed="2.78" allow="bicycle pedestrian" oneway="1" width="2.00"/>
    <type id="highway.pedestrian" priority="1" numLanes="1" speed="2.78" allow="pedestrian" oneway="1" width="2.00"/>
    <type id="highway.primary" priority="12" numLanes="2" speed="27.78" disallow="tram rail_urban rail rail_electric ship" oneway="0"/>
    <type id="highway.primary_link" priority="7" numLanes="1" speed="22.22" disallow="tram rail_urban rail rail_electric ship" oneway="0"/>
    <type id="highway.raceway" priority="15" numLanes="2" speed="83.33" allow="vip" oneway="0"/>
    <type id="highway.residential" priority="3" numLanes="1" speed="13.89" disallow="tram rail_urban rail rail_electric ship" oneway="0"/>
    <type id="highway.secondary" priority="11" numLanes="1" speed="27.78" disallow="tram rail_urban rail rail_electric ship" oneway="0"/>
    <type id="highway.secondary_link" priority="6" numLanes="1" speed="22.22" disallow="tram rail_urban rail rail_electric ship" oneway="0"/>
    <type id="highway.service" priority="1" numLanes="1" speed="5.56" allow="delivery bicycle pedestrian" oneway="0"/>
    <type id="highway.stairs" priority="1" numLanes="1" speed="1.39" allow="pedestrian" oneway="1" width="2.00"/>
    <type id="highway.step" priority="1" numLanes="1" speed="1.39" allow="pedestrian" oneway="1" width="2.00"/>
    <type id="highway.steps" priority="1" numLanes="1" speed="1.39" allow="pedestrian" oneway="1" width="2.00"/>
    <type id="highway.tertiary" priority="10" numLanes="1" speed="22.22" disallow="tram rail_urban rail rail_electric ship" oneway="0"/>
    <type id="highway.tertiary_link" priority="5" numLanes="1" speed="22.22" disallow="tram rail_urban rail rail_electric ship" oneway="0"/>
    <type id="highway.track" priority="1" numLanes="1" speed="5.56" disallow="tram rail_urban rail rail_electric ship" oneway="0"/>
    <type id="highway.trunk" priority="13" numLanes="2" speed="27.78" disallow="tram rail_urban rail rail_electric bicycle pedestrian ship" oneway="0"/>
    <type id="highway.trunk_link" priority="8" numLanes="1" speed="22.22" disallow="tram rail_urban rail rail_electric bicycle pedestrian ship" oneway="0"/>
    <type id="highway.unclassified" priority="4" numLanes="1" speed="13.89" disallow="tram rail_urban rail rail_electric ship" oneway="0"/>
    <type id="highway.unsurfaced" priority="1" numLanes="1" speed="8.33" disallow="tram rail_urban rail rail_electric ship" oneway="0"/>
    <type id="railway.highspeed" priority="21" numLanes="1" speed="69.44" allow="rail_electric" oneway="1"/>
    <type id="railway.light_rail" priority="19" numLanes="1" speed="27.78" allow="rail_urban" oneway="1"/>
    <type id="railway.preserved" priority="16" numLanes="1" speed="27.78" allow="rail" oneway="1"/>
    <type id="railway.rail" priority="20" numLanes="1" speed="44.44" allow="rail" oneway="1"/>
    <type id="railway.subway" priority="18" numLanes="1" speed="27.78" allow="rail_urban" oneway="1"/>
    <type id="railway.tram" priority="17" numLanes="1" speed="13.89" allow="tram" oneway="1"/>

    <edge id=":247123161_0" function="internal">
        <lane id=":247123161_0_0" index="0" disallow="tram rail_urban rail rail_electric ship" speed="7.96" length="11.95" shape="80.88,74.87 79.87,72.06 78.07,70.04 75.49,68.82 72.12,68.41"/>
    </edge>
    <edge id=":247123161_1" function="internal">
        <lane id=":247123161_1_0" index="0" disallow="tram rail_urban rail rail_electric ship" speed="22.22" length="22.16" shape="80.88,74.87 77.16,53.03"/>
    </edge>
    <edge id=":247123161_2" function="internal">
        <lane id=":247123161_2_0" index="0" disallow="tram rail_urban rail rail_electric ship" speed="6.13" length="9.06" shape="88.84,68.45 86.32,68.81 84.67,69.90 83.91,71.72 84.02,74.27"/>
    </edge>
    <edge id=":247123161_3" function="internal">
        <lane id=":247123161_3_0" index="0" disallow="tram rail_urban rail rail_electric ship" speed="27.78" length="16.72" shape="88.84,68.45 72.12,68.41"/>
        <lane id=":247123161_3_1" index="1" disallow="tram rail_urban rail rail_electric ship" speed="27.78" length="16.72" shape="88.85,65.25 72.13,65.21"/>
    </edge>
    <edge id=":247123161_5" function="internal">
        <lane id=":247123161_5_0" index="0" disallow="tram rail_urban rail rail_electric ship" speed="7.74" length="11.71" shape="80.33,52.56 81.21,55.31 82.93,57.27 85.47,58.45 88.85,58.85"/>
    </edge>
    <edge id=":247123161_6" function="internal">
        <lane id=":247123161_6_0" index="0" disallow="tram rail_urban rail rail_electric ship" speed="22.22" length="22.03" shape="80.33,52.56 84.02,74.27"/>
    </edge>
    <edge id=":247123161_7" function="internal">
        <lane id=":247123161_7_0" index="0" disallow="tram rail_urban rail rail_electric ship" speed="6.20" length="9.05" shape="72.16,58.81 74.67,58.45 76.34,57.37 77.17,55.57 77.16,53.03"/>
    </edge>
    <edge id=":247123161_8" function="internal">
        <lane id=":247123161_8_0" index="0" disallow="tram rail_urban rail rail_electric ship" speed="27.78" length="16.70" shape="72.16,58.81 88.85,58.85"/>
        <lane id=":247123161_8_1" index="1" disallow="tram rail_urban rail rail_electric ship" speed="27.78" length="16.70" shape="72.15,62.01 88.85,62.05"/>
    </edge>

    <edge id="-238059324" from="-103021" to="247123161" priority="10" type="highway.tertiary">
        <lane id="-238059324_0" index="0" disallow="tram rail_urban rail rail_electric ship" speed="22.22" length="53.38" shape="72.45,-0.24 80.33,52.56"/>
    </edge>
    <edge id="-238059328" from="247123374" to="247123161" priority="11" type="highway.secondary">
        <lane id="-238059328_0" index="0" disallow="tram rail_urban rail rail_electric ship" speed="27.78" length="72.14" shape="0.02,58.50 72.16,58.81"/>
        <lane id="-238059328_1" index="1" disallow="tram rail_urban rail rail_electric ship" speed="27.78" length="72.14" shape="0.01,61.70 72.15,62.01"/>
    </edge>
    <edge id="-309265401" from="247123161" to="247123464" priority="11" type="highway.secondary" shape="80.36,63.64 108.03,63.66 117.39,63.70 159.10,63.85">
        <lane id="-309265401_0" index="0" disallow="tram rail_urban rail rail_electric ship" speed="27.78" length="70.26" shape="88.85,58.85 108.04,58.86 117.41,58.90 159.12,59.05"/>
        <lane id="-309265401_1" index="1" disallow="tram rail_urban rail rail_electric ship" speed="27.78" length="70.26" shape="88.85,62.05 108.03,62.06 117.40,62.10 159.11,62.25"/>
    </edge>
    <edge id="-383432312" from="247123161" to="-103073" priority="10" type="highway.tertiary">
        <lane id="-383432312_0" index="0" disallow="tram rail_urban rail rail_electric ship" speed="22.22" length="35.74" shape="84.02,74.27 90.74,109.38"/>
    </edge>
    <edge id="238059324" from="247123161" to="-103021" priority="10" type="highway.tertiary">
        <lane id="238059324_0" index="0" disallow="tram rail_urban rail rail_electric ship" speed="22.22" length="53.38" shape="77.16,53.03 69.29,0.24"/>
    </edge>
    <edge id="238059328" from="247123161" to="247123374" priority="11" type="highway.secondary">
        <lane id="238059328_0" index="0" disallow="tram rail_urban rail rail_electric ship" speed="27.78" length="72.14" shape="72.12,68.41 -0.02,68.10"/>
        <lane id="238059328_1" index="1" disallow="tram rail_urban rail rail_electric ship" speed="27.78" length="72.14" shape="72.13,65.21 -0.01,64.90"/>
    </edge>
    <edge id="309265401" from="247123464" to="247123161" priority="11" type="highway.secondary" shape="159.10,63.85 117.39,63.70 108.03,63.66 80.36,63.64">
        <lane id="309265401_0" index="0" disallow="tram rail_urban rail rail_electric ship" speed="27.78" length="70.24" shape="159.08,68.65 117.37,68.50 108.02,68.46 88.84,68.45"/>
        <lane id="309265401_1" index="1" disallow="tram rail_urban rail rail_electric ship" speed="27.78" length="70.24" shape="159.09,65.45 117.38,65.30 108.03,65.26 88.85,65.25"/>
    </edge>
    <edge id="383432312" from="-103073" to="247123161" priority="10" type="highway.tertiary">
        <lane id="383432312_0" index="0" disallow="tram rail_urban rail rail_electric ship" speed="22.22" length="35.74" shape="87.60,109.98 80.88,74.87"/>
    </edge>

    <tlLogic id="247123161" type="static" programID="0" offset="0">
        <phase duration="39" state="rrrGGGgrrrGGGg"/>
        <phase duration="6"  state="rrryyyyrrryyyy"/>
        <phase duration="39" state="GGgrrrrGGgrrrr"/>
        <phase duration="6"  state="yyyrrrryyyrrrr"/>
    </tlLogic>

    <junction id="-103021" type="dead_end" x="70.87" y="0.00" incLanes="238059324_0" intLanes="" shape="70.87,0.00 67.70,0.47 70.87,0.00"/>
    <junction id="-103073" type="dead_end" x="89.17" y="109.68" incLanes="-383432312_0" intLanes="" shape="89.17,109.68 92.31,109.08 89.17,109.68"/>
    <junction id="247123161" type="traffic_light" x="80.36" y="63.64" incLanes="383432312_0 309265401_0 309265401_1 -238059324_0 -238059328_0 -238059328_1" intLanes=":247123161_0_0 :247123161_1_0 :247123161_2_0 :247123161_3_0 :247123161_3_1 :247123161_5_0 :247123161_6_0 :247123161_7_0 :247123161_8_0 :247123161_8_1" shape="79.31,75.17 85.60,73.97 85.62,71.79 86.03,71.03 86.70,70.48 87.64,70.15 88.84,70.05 88.85,57.25 85.32,56.70 84.01,56.01 83.01,55.06 82.30,53.83 81.91,52.32 75.58,53.27 75.46,55.46 75.02,56.23 74.32,56.78 73.37,57.10 72.17,57.21 72.11,70.01 75.67,70.59 77.02,71.31 78.07,72.31 78.84,73.60">
        <request index="0" response="0000011000" foes="0000011000" cont="0"/>
        <request index="1" response="1110011000" foes="1110011000" cont="0"/>
        <request index="2" response="0000000000" foes="0001000000" cont="0"/>
        <request index="3" response="0000000000" foes="0001000011" cont="0"/>
        <request index="4" response="0000000000" foes="0001000011" cont="0"/>
        <request index="5" response="1100000000" foes="1100000000" cont="0"/>
        <request index="6" response="1100011100" foes="1100011100" cont="0"/>
        <request index="7" response="0000000000" foes="0000000010" cont="0"/>
        <request index="8" response="0000000000" foes="0001100010" cont="0"/>
        <request index="9" response="0000000000" foes="0001100010" cont="0"/>
    </junction>
    <junction id="247123374" type="dead_end" x="0.00" y="63.30" incLanes="238059328_0 238059328_1" intLanes="" shape="0.00,63.30 -0.03,69.70 0.00,63.30"/>
    <junction id="247123464" type="dead_end" x="159.10" y="63.85" incLanes="-309265401_0 -309265401_1" intLanes="" shape="159.10,63.85 159.12,57.45 159.10,63.85"/>

    <connection from="-238059324" to="-309265401" fromLane="0" toLane="0" via=":247123161_5_0" tl="247123161" linkIndex="7" dir="r" state="o"/>
    <connection from="-238059324" to="-383432312" fromLane="0" toLane="0" via=":247123161_6_0" tl="247123161" linkIndex="8" dir="s" state="o"/>
    <connection from="-238059328" to="238059324" fromLane="0" toLane="0" via=":247123161_7_0" tl="247123161" linkIndex="10" dir="r" state="O"/>
    <connection from="-238059328" to="-309265401" fromLane="0" toLane="0" via=":247123161_8_0" tl="247123161" linkIndex="11" dir="s" state="O"/>
    <connection from="-238059328" to="-309265401" fromLane="1" toLane="1" via=":247123161_8_1" tl="247123161" linkIndex="12" dir="s" state="O"/>
    <connection from="309265401" to="-383432312" fromLane="0" toLane="0" via=":247123161_2_0" tl="247123161" linkIndex="3" dir="r" state="O"/>
    <connection from="309265401" to="238059328" fromLane="0" toLane="0" via=":247123161_3_0" tl="247123161" linkIndex="4" dir="s" state="O"/>
    <connection from="309265401" to="238059328" fromLane="1" toLane="1" via=":247123161_3_1" tl="247123161" linkIndex="5" dir="s" state="O"/>
    <connection from="383432312" to="238059328" fromLane="0" toLane="0" via=":247123161_0_0" tl="247123161" linkIndex="0" dir="r" state="o"/>
    <connection from="383432312" to="238059324" fromLane="0" toLane="0" via=":247123161_1_0" tl="247123161" linkIndex="1" dir="s" state="o"/>

    <connection from=":247123161_0" to="238059328" fromLane="0" toLane="0" dir="r" state="M"/>
    <connection from=":247123161_1" to="238059324" fromLane="0" toLane="0" dir="s" state="M"/>
    <connection from=":247123161_2" to="-383432312" fromLane="0" toLane="0" dir="r" state="M"/>
    <connection from=":247123161_3" to="238059328" fromLane="0" toLane="0" dir="s" state="M"/>
    <connection from=":247123161_3" to="238059328" fromLane="1" toLane="1" dir="s" state="M"/>
    <connection from=":247123161_5" to="-309265401" fromLane="0" toLane="0" dir="r" state="M"/>
    <connection from=":247123161_6" to="-383432312" fromLane="0" toLane="0" dir="s" state="M"/>
    <connection from=":247123161_7" to="238059324" fromLane="0" toLane="0" dir="r" state="M"/>
    <connection from=":247123161_8" to="-309265401" fromLane="0" toLane="0" dir="s" state="M"/>
    <connection from=":247123161_8" to="-309265401" fromLane="1" toLane="1" dir="s" state="M"/>

</net>
