<?xml version="1.0" encoding="UTF-8"?>

<!-- generated on Fri Jan 10 08:55:21 2020 by Eclipse SUMO duarouter Version 1.1.0
<configuration xmlns:xsi="http://www.w3.org/2001/XMLSchema-instance" xsi:noNamespaceSchemaLocation="http://sumo.dlr.de/xsd/duarouterConfiguration.xsd">

    <input>
        <net-file value="intersection.net.xml"/>
        <route-files value="intersection.trips.xml"/>
    </input>

    <output>
        <output-file value="intersection.rou.xml"/>
        <alternatives-output value="intersection.rou.alt.xml"/>
    </output>

    <time>
        <begin value="0.0"/>
        <end value="360.0"/>
    </time>

    <report>
        <no-warnings value="true"/>
        <ignore-errors value="true"/>
        <no-step-log value="true"/>
    </report>

</configuration>
-->

<routes xmlns:xsi="http://www.w3.org/2001/XMLSchema-instance" xsi:noNamespaceSchemaLocation="http://sumo.dlr.de/xsd/routes_file.xsd">
    <vehicle id="0" depart="0.00">
        <route edges="-238059328 238059324"/>
    </vehicle>
    <vehicle id="2" depart="4.00">
        <route edges="-238059328 -309265401"/>
    </vehicle>
    <vehicle id="4" depart="8.00">
        <route edges="383432312 238059324"/>
    </vehicle>
    <vehicle id="5" depart="10.00">
        <route edges="-238059324 -309265401"/>
    </vehicle>
    <vehicle id="6" depart="12.00">
        <route edges="-238059328 -309265401"/>
    </vehicle>
    <vehicle id="8" depart="16.00">
        <route edges="383432312 238059324"/>
    </vehicle>
    <vehicle id="9" depart="18.00">
        <route edges="383432312 238059324"/>
    </vehicle>
    <vehicle id="11" depart="22.00">
        <route edges="309265401 238059328"/>
    </vehicle>
    <vehicle id="13" depart="26.00">
        <route edges="383432312 238059328"/>
    </vehicle>
    <vehicle id="15" depart="30.00">
        <route edges="383432312 238059328"/>
    </vehicle>
    <vehicle id="17" depart="34.00">
        <route edges="383432312 238059328"/>
    </vehicle>
    <vehicle id="18" depart="36.00">
        <route edges="309265401 -383432312"/>
    </vehicle>
    <vehicle id="22" depart="44.00">
        <route edges="-238059324 -383432312"/>
    </vehicle>
    <vehicle id="23" depart="46.00">
        <route edges="-238059328 238059324"/>
    </vehicle>
    <vehicle id="24" depart="48.00">
        <route edges="-238059328 238059324"/>
    </vehicle>
    <vehicle id="25" depart="50.00">
        <route edges="-238059324 -383432312"/>
    </vehicle>
    <vehicle id="26" depart="52.00">
        <route edges="383432312 238059328"/>
    </vehicle>
    <vehicle id="27" depart="54.00">
        <route edges="-238059328 238059324"/>
    </vehicle>
    <vehicle id="28" depart="56.00">
        <route edges="-238059328 238059324"/>
    </vehicle>
    <vehicle id="30" depart="60.00">
        <route edges="383432312 238059324"/>
    </vehicle>
    <vehicle id="31" depart="62.00">
        <route edges="-238059328 238059324"/>
    </vehicle>
    <vehicle id="34" depart="68.00">
        <route edges="-238059328 -309265401"/>
    </vehicle>
    <vehicle id="36" depart="72.00">
        <route edges="-238059328 -309265401"/>
    </vehicle>
    <vehicle id="37" depart="74.00">
        <route edges="-238059324 -383432312"/>
    </vehicle>
    <vehicle id="38" depart="76.00">
        <route edges="309265401 238059328"/>
    </vehicle>
    <vehicle id="40" depart="80.00">
        <route edges="309265401 -383432312"/>
    </vehicle>
    <vehicle id="41" depart="82.00">
        <route edges="383432312 238059328"/>
    </vehicle>
    <vehicle id="42" depart="84.00">
        <route edges="-238059324 -309265401"/>
    </vehicle>
    <vehicle id="43" depart="86.00">
        <route edges="-238059324 -383432312"/>
    </vehicle>
    <vehicle id="45" depart="90.00">
        <route edges="-238059324 -309265401"/>
    </vehicle>
    <vehicle id="46" depart="92.00">
        <route edges="-238059328 -309265401"/>
    </vehicle>
    <vehicle id="51" depart="102.00">
        <route edges="309265401 238059328"/>
    </vehicle>
    <vehicle id="52" depart="104.00">
        <route edges="-238059324 -309265401"/>
    </vehicle>
    <vehicle id="54" depart="108.00">
        <route edges="309265401 238059328"/>
    </vehicle>
    <vehicle id="56" depart="112.00">
        <route edges="383432312 238059324"/>
    </vehicle>
    <vehicle id="57" depart="114.00">
        <route edges="-238059328 -309265401"/>
    </vehicle>
    <vehicle id="58" depart="116.00">
        <route edges="309265401 -383432312"/>
    </vehicle>
    <vehicle id="59" depart="118.00">
        <route edges="309265401 238059328"/>
    </vehicle>
    <vehicle id="60" depart="120.00">
        <route edges="383432312 238059328"/>
    </vehicle>
    <vehicle id="63" depart="126.00">
        <route edges="383432312 238059328"/>
    </vehicle>
    <vehicle id="64" depart="128.00">
        <route edges="309265401 238059328"/>
    </vehicle>
    <vehicle id="66" depart="132.00">
        <route edges="-238059328 238059324"/>
    </vehicle>
    <vehicle id="67" depart="134.00">
        <route edges="309265401 238059328"/>
    </vehicle>
    <vehicle id="68" depart="136.00">
        <route edges="-238059324 -383432312"/>
    </vehicle>
    <vehicle id="71" depart="142.00">
        <route edges="-238059324 -309265401"/>
    </vehicle>
    <vehicle id="72" depart="144.00">
        <route edges="383432312 238059324"/>
    </vehicle>
    <vehicle id="74" depart="148.00">
        <route edges="309265401 -383432312"/>
    </vehicle>
    <vehicle id="75" depart="150.00">
        <route edges="-238059324 -383432312"/>
    </vehicle>
    <vehicle id="76" depart="152.00">
        <route edges="383432312 238059328"/>
    </vehicle>
    <vehicle id="78" depart="156.00">
        <route edges="-238059328 238059324"/>
    </vehicle>
    <vehicle id="79" depart="158.00">
        <route edges="-238059328 238059324"/>
    </vehicle>
    <vehicle id="80" depart="160.00">
        <route edges="-238059328 -309265401"/>
    </vehicle>
    <vehicle id="81" depart="162.00">
        <route edges="-238059328 -309265401"/>
    </vehicle>
    <vehicle id="83" depart="166.00">
        <route edges="383432312 238059324"/>
    </vehicle>
    <vehicle id="84" depart="168.00">
        <route edges="309265401 238059328"/>
    </vehicle>
    <vehicle id="90" depart="180.00">
        <route edges="309265401 238059328"/>
    </vehicle>
    <vehicle id="91" depart="182.00">
        <route edges="-238059328 238059324"/>
    </vehicle>
    <vehicle id="92" depart="184.00">
        <route edges="309265401 -383432312"/>
    </vehicle>
    <vehicle id="95" depart="190.00">
        <route edges="383432312 238059328"/>
    </vehicle>
    <vehicle id="96" depart="192.00">
        <route edges="-238059328 -309265401"/>
    </vehicle>
    <vehicle id="99" depart="198.00">
        <route edges="-238059328 238059324"/>
    </vehicle>
    <vehicle id="101" depart="202.00">
        <route edges="-238059328 238059324"/>
    </vehicle>
    <vehicle id="102" depart="204.00">
        <route edges="-238059324 -383432312"/>
    </vehicle>
    <vehicle id="103" depart="206.00">
        <route edges="-238059328 -309265401"/>
    </vehicle>
    <vehicle id="104" depart="208.00">
        <route edges="-238059324 -383432312"/>
    </vehicle>
    <vehicle id="106" depart="212.00">
        <route edges="-238059324 -383432312"/>
    </vehicle>
    <vehicle id="107" depart="214.00">
        <route edges="-238059324 -309265401"/>
    </vehicle>
    <vehicle id="110" depart="220.00">
        <route edges="-238059328 -309265401"/>
    </vehicle>
    <vehicle id="112" depart="224.00">
        <route edges="383432312 238059328"/>
    </vehicle>
    <vehicle id="114" depart="228.00">
        <route edges="-238059328 238059324"/>
    </vehicle>
    <vehicle id="115" depart="230.00">
        <route edges="309265401 238059328"/>
    </vehicle>
    <vehicle id="116" depart="232.00">
        <route edges="309265401 -383432312"/>
    </vehicle>
    <vehicle id="117" depart="234.00">
        <route edges="-238059324 -383432312"/>
    </vehicle>
    <vehicle id="120" depart="240.00">
        <route edges="-238059324 -309265401"/>
    </vehicle>
    <vehicle id="122" depart="244.00">
        <route edges="383432312 238059324"/>
    </vehicle>
    <vehicle id="127" depart="254.00">
        <route edges="309265401 -383432312"/>
    </vehicle>
    <vehicle id="128" depart="256.00">
        <route edges="383432312 238059324"/>
    </vehicle>
    <vehicle id="129" depart="258.00">
        <route edges="-238059328 -309265401"/>
    </vehicle>
    <vehicle id="132" depart="264.00">
        <route edges="383432312 238059324"/>
    </vehicle>
    <vehicle id="134" depart="268.00">
        <route edges="383432312 238059324"/>
    </vehicle>
    <vehicle id="139" depart="278.00">
        <route edges="309265401 -383432312"/>
    </vehicle>
    <vehicle id="143" depart="286.00">
        <route edges="383432312 238059324"/>
    </vehicle>
    <vehicle id="146" depart="292.00">
        <route edges="-238059328 -309265401"/>
    </vehicle>
    <vehicle id="148" depart="296.00">
        <route edges="-238059328 238059324"/>
    </vehicle>
    <vehicle id="150" depart="300.00">
        <route edges="-238059324 -309265401"/>
    </vehicle>
    <vehicle id="151" depart="302.00">
        <route edges="309265401 -383432312"/>
    </vehicle>
    <vehicle id="152" depart="304.00">
        <route edges="383432312 238059328"/>
    </vehicle>
    <vehicle id="153" depart="306.00">
        <route edges="309265401 238059328"/>
    </vehicle>
    <vehicle id="157" depart="314.00">
        <route edges="383432312 238059328"/>
    </vehicle>
    <vehicle id="158" depart="316.00">
        <route edges="309265401 -383432312"/>
    </vehicle>
    <vehicle id="159" depart="318.00">
        <route edges="309265401 -383432312"/>
    </vehicle>
    <vehicle id="166" depart="332.00">
        <route edges="-238059328 -309265401"/>
    </vehicle>
    <vehicle id="167" depart="334.00">
        <route edges="383432312 238059324"/>
    </vehicle>
    <vehicle id="168" depart="336.00">
        <route edges="-238059324 -309265401"/>
    </vehicle>
    <vehicle id="175" depart="350.00">
        <route edges="-238059328 238059324"/>
    </vehicle>
    <vehicle id="178" depart="356.00">
        <route edges="-238059324 -309265401"/>
    </vehicle>
</routes>
